[VMEM] WARNING: physical memory size is smaller than virtual memory size.

*** ChampSim Multicore Out-of-Order Simulator ***
Warmup Instructions: 10000000
Simulation Instructions: 50000000
Number of CPUs: 1
Page size: 4096

Off-chip DRAM Size: 16 GiB Channels: 1 Width: 64-bit Data Rate: 3205 MT/s
Heartbeat CPU 0 instructions: 10000001 cycles: 2964776 heartbeat IPC: 3.373 cumulative IPC: 3.373 (Simulation time: 00 hr 00 min 27 sec)
Warmup finished CPU 0 instructions: 10000001 cycles: 2964776 cumulative IPC: 3.373 (Simulation time: 00 hr 00 min 27 sec)
Warmup complete CPU 0 instructions: 10000001 cycles: 2964776 cumulative IPC: 3.373 (Simulation time: 00 hr 00 min 27 sec)
Heartbeat CPU 0 instructions: 20000002 cycles: 9150833 heartbeat IPC: 1.617 cumulative IPC: 1.617 (Simulation time: 00 hr 01 min 07 sec)
Heartbeat CPU 0 instructions: 30000006 cycles: 15285631 heartbeat IPC: 1.63 cumulative IPC: 1.623 (Simulation time: 00 hr 01 min 48 sec)
Heartbeat CPU 0 instructions: 40000007 cycles: 21386849 heartbeat IPC: 1.639 cumulative IPC: 1.628 (Simulation time: 00 hr 02 min 28 sec)
Heartbeat CPU 0 instructions: 50000007 cycles: 27510474 heartbeat IPC: 1.633 cumulative IPC: 1.63 (Simulation time: 00 hr 03 min 09 sec)
Simulation finished CPU 0 instructions: 50000001 cycles: 34090656 cumulative IPC: 1.467 (Simulation time: 00 hr 04 min 02 sec)
Simulation complete CPU 0 instructions: 50000001 cycles: 34090656 cumulative IPC: 1.467 (Simulation time: 00 hr 04 min 02 sec)

ChampSim completed all CPUs

=== Simulation ===
CPU 0 runs traces/607.cactuBSSN_s-2421B.champsimtrace.xz

Region of Interest Statistics

CPU 0 cumulative IPC: 1.467 instructions: 50000001 cycles: 34090656
CPU 0 Branch Prediction Accuracy: 91.79% MPKI: 0.676 Average ROB Occupancy at Mispredict: 303.1
Branch type MPKI
BRANCH_DIRECT_JUMP: 0.00124
BRANCH_INDIRECT: 0.00164
BRANCH_CONDITIONAL: 0.3451
BRANCH_DIRECT_CALL: 0.01318
BRANCH_INDIRECT_CALL: 6e-05
BRANCH_RETURN: 0.3147

cpu0->cpu0_STLB TOTAL        ACCESS:    2211672 HIT:    2208613 MISS:       3059 MSHR_MERGE:          0
cpu0->cpu0_STLB LOAD         ACCESS:    2211672 HIT:    2208613 MISS:       3059 MSHR_MERGE:          0
cpu0->cpu0_STLB RFO          ACCESS:          0 HIT:          0 MISS:          0 MSHR_MERGE:          0
cpu0->cpu0_STLB PREFETCH     ACCESS:          0 HIT:          0 MISS:          0 MSHR_MERGE:          0
cpu0->cpu0_STLB WRITE        ACCESS:          0 HIT:          0 MISS:          0 MSHR_MERGE:          0
cpu0->cpu0_STLB TRANSLATION  ACCESS:          0 HIT:          0 MISS:          0 MSHR_MERGE:          0
cpu0->cpu0_STLB PREFETCH REQUESTED:          0 ISSUED:          0 USEFUL:          0 USELESS:          0
cpu0->cpu0_STLB AVERAGE MISS LATENCY: 830.6 cycles
cpu0->cpu0_L2C TOTAL        ACCESS:    5469046 HIT:    5134453 MISS:     334593 MSHR_MERGE:          0
cpu0->cpu0_L2C LOAD         ACCESS:    4784930 HIT:    4487137 MISS:     297793 MSHR_MERGE:          0
cpu0->cpu0_L2C RFO          ACCESS:     321721 HIT:     292041 MISS:      29680 MSHR_MERGE:          0
cpu0->cpu0_L2C PREFETCH     ACCESS:          0 HIT:          0 MISS:          0 MSHR_MERGE:          0
cpu0->cpu0_L2C WRITE        ACCESS:     354942 HIT:     354895 MISS:         47 MSHR_MERGE:          0
cpu0->cpu0_L2C TRANSLATION  ACCESS:       7453 HIT:        380 MISS:       7073 MSHR_MERGE:          0
cpu0->cpu0_L2C PREFETCH REQUESTED:          0 ISSUED:          0 USEFUL:          0 USELESS:          0
cpu0->cpu0_L2C AVERAGE MISS LATENCY: 131.7 cycles
cpu0->cpu0_L1I TOTAL        ACCESS:   10853909 HIT:    8693759 MISS:    2160150 MSHR_MERGE:    1070396
cpu0->cpu0_L1I LOAD         ACCESS:   10853909 HIT:    8693759 MISS:    2160150 MSHR_MERGE:    1070396
cpu0->cpu0_L1I RFO          ACCESS:          0 HIT:          0 MISS:          0 MSHR_MERGE:          0
cpu0->cpu0_L1I PREFETCH     ACCESS:          0 HIT:          0 MISS:          0 MSHR_MERGE:          0
cpu0->cpu0_L1I WRITE        ACCESS:          0 HIT:          0 MISS:          0 MSHR_MERGE:          0
cpu0->cpu0_L1I TRANSLATION  ACCESS:          0 HIT:          0 MISS:          0 MSHR_MERGE:          0
cpu0->cpu0_L1I PREFETCH REQUESTED:          0 ISSUED:          0 USEFUL:          0 USELESS:          0
cpu0->cpu0_L1I AVERAGE MISS LATENCY: 7.336 cycles
cpu0->cpu0_L1D TOTAL        ACCESS:   18695545 HIT:   14289300 MISS:    4406245 MSHR_MERGE:     379387
cpu0->cpu0_L1D LOAD         ACCESS:   14396446 HIT:   10354794 MISS:    4041652 MSHR_MERGE:     344001
cpu0->cpu0_L1D RFO          ACCESS:          0 HIT:          0 MISS:          0 MSHR_MERGE:          0
cpu0->cpu0_L1D PREFETCH     ACCESS:          0 HIT:          0 MISS:          0 MSHR_MERGE:          0
cpu0->cpu0_L1D WRITE        ACCESS:    4291450 HIT:    3934371 MISS:     357079 MSHR_MERGE:      35325
cpu0->cpu0_L1D TRANSLATION  ACCESS:       7649 HIT:        135 MISS:       7514 MSHR_MERGE:         61
cpu0->cpu0_L1D PREFETCH REQUESTED:          0 ISSUED:          0 USEFUL:          0 USELESS:          0
cpu0->cpu0_L1D AVERAGE MISS LATENCY: 19.83 cycles
cpu0->cpu0_ITLB TOTAL        ACCESS:    8678743 HIT:    8678617 MISS:        126 MSHR_MERGE:         66
cpu0->cpu0_ITLB LOAD         ACCESS:    8678743 HIT:    8678617 MISS:        126 MSHR_MERGE:         66
cpu0->cpu0_ITLB RFO          ACCESS:          0 HIT:          0 MISS:          0 MSHR_MERGE:          0
cpu0->cpu0_ITLB PREFETCH     ACCESS:          0 HIT:          0 MISS:          0 MSHR_MERGE:          0
cpu0->cpu0_ITLB WRITE        ACCESS:          0 HIT:          0 MISS:          0 MSHR_MERGE:          0
cpu0->cpu0_ITLB TRANSLATION  ACCESS:          0 HIT:          0 MISS:          0 MSHR_MERGE:          0
cpu0->cpu0_ITLB PREFETCH REQUESTED:          0 ISSUED:          0 USEFUL:          0 USELESS:          0
cpu0->cpu0_ITLB AVERAGE MISS LATENCY: 783.7 cycles
cpu0->cpu0_DTLB TOTAL        ACCESS:   17631094 HIT:   15035371 MISS:    2595723 MSHR_MERGE:     384111
cpu0->cpu0_DTLB LOAD         ACCESS:   17631094 HIT:   15035371 MISS:    2595723 MSHR_MERGE:     384111
cpu0->cpu0_DTLB RFO          ACCESS:          0 HIT:          0 MISS:          0 MSHR_MERGE:          0
cpu0->cpu0_DTLB PREFETCH     ACCESS:          0 HIT:          0 MISS:          0 MSHR_MERGE:          0
cpu0->cpu0_DTLB WRITE        ACCESS:          0 HIT:          0 MISS:          0 MSHR_MERGE:          0
cpu0->cpu0_DTLB TRANSLATION  ACCESS:          0 HIT:          0 MISS:          0 MSHR_MERGE:          0
cpu0->cpu0_DTLB PREFETCH REQUESTED:          0 ISSUED:          0 USEFUL:          0 USELESS:          0
cpu0->cpu0_DTLB AVERAGE MISS LATENCY: 6.169 cycles
cpu0->LLC TOTAL        ACCESS:     371528 HIT:     190915 MISS:     180613 MSHR_MERGE:          0
cpu0->LLC LOAD         ACCESS:     297793 HIT:     146882 MISS:     150911 MSHR_MERGE:          0
cpu0->LLC RFO          ACCESS:      29650 HIT:       4976 MISS:      24674 MSHR_MERGE:          0
cpu0->LLC PREFETCH     ACCESS:          0 HIT:          0 MISS:          0 MSHR_MERGE:          0
cpu0->LLC WRITE        ACCESS:      37012 HIT:      36913 MISS:         99 MSHR_MERGE:          0
cpu0->LLC TRANSLATION  ACCESS:       7073 HIT:       2144 MISS:       4929 MSHR_MERGE:          0
cpu0->LLC PREFETCH REQUESTED:          0 ISSUED:          0 USEFUL:          0 USELESS:          0
cpu0->LLC AVERAGE MISS LATENCY: 215.2 cycles

DRAM Statistics

Channel 0 RQ ROW_BUFFER_HIT:        163
  ROW_BUFFER_MISS:     180351
  AVG DBUS CONGESTED CYCLE: 9.318
Channel 0 WQ ROW_BUFFER_HIT:       4017
  ROW_BUFFER_MISS:      29647
  FULL:          0
Channel 0 REFRESHES ISSUED:       2840
