[VMEM] WARNING: physical memory size is smaller than virtual memory size.

*** ChampSim Multicore Out-of-Order Simulator ***
Warmup Instructions: 10000000
Simulation Instructions: 50000000
Number of CPUs: 1
Page size: 4096

Off-chip DRAM Size: 16 GiB Channels: 1 Width: 64-bit Data Rate: 3205 MT/s
Heartbeat CPU 0 instructions: 10000001 cycles: 3398587 heartbeat IPC: 2.942 cumulative IPC: 2.942 (Simulation time: 00 hr 00 min 25 sec)
Warmup finished CPU 0 instructions: 10000001 cycles: 3398587 cumulative IPC: 2.942 (Simulation time: 00 hr 00 min 25 sec)
Warmup complete CPU 0 instructions: 10000001 cycles: 3398587 cumulative IPC: 2.942 (Simulation time: 00 hr 00 min 25 sec)
Heartbeat CPU 0 instructions: 20000002 cycles: 12759638 heartbeat IPC: 1.068 cumulative IPC: 1.068 (Simulation time: 00 hr 01 min 06 sec)
Heartbeat CPU 0 instructions: 30000005 cycles: 22024708 heartbeat IPC: 1.079 cumulative IPC: 1.074 (Simulation time: 00 hr 01 min 46 sec)
Heartbeat CPU 0 instructions: 40000005 cycles: 31220542 heartbeat IPC: 1.087 cumulative IPC: 1.078 (Simulation time: 00 hr 02 min 26 sec)
Heartbeat CPU 0 instructions: 50000009 cycles: 40366245 heartbeat IPC: 1.093 cumulative IPC: 1.082 (Simulation time: 00 hr 03 min 06 sec)
Simulation finished CPU 0 instructions: 50000003 cycles: 46334366 cumulative IPC: 1.079 (Simulation time: 00 hr 03 min 46 sec)
Simulation complete CPU 0 instructions: 50000003 cycles: 46334366 cumulative IPC: 1.079 (Simulation time: 00 hr 03 min 46 sec)

ChampSim completed all CPUs

=== Simulation ===
CPU 0 runs traces/631.deepsjeng_s-928B.champsimtrace.xz

Region of Interest Statistics

CPU 0 cumulative IPC: 1.079 instructions: 50000003 cycles: 46334366
CPU 0 Branch Prediction Accuracy: 89.86% MPKI: 15.07 Average ROB Occupancy at Mispredict: 29.12
Branch type MPKI
BRANCH_DIRECT_JUMP: 0.01754
BRANCH_INDIRECT: 0.01102
BRANCH_CONDITIONAL: 14.54
BRANCH_DIRECT_CALL: 0.01738
BRANCH_INDIRECT_CALL: 0
BRANCH_RETURN: 0.4758

cpu0->cpu0_STLB TOTAL        ACCESS:      13767 HIT:       4627 MISS:       9140 MSHR_MERGE:          0
cpu0->cpu0_STLB LOAD         ACCESS:      13767 HIT:       4627 MISS:       9140 MSHR_MERGE:          0
cpu0->cpu0_STLB RFO          ACCESS:          0 HIT:          0 MISS:          0 MSHR_MERGE:          0
cpu0->cpu0_STLB PREFETCH     ACCESS:          0 HIT:          0 MISS:          0 MSHR_MERGE:          0
cpu0->cpu0_STLB WRITE        ACCESS:          0 HIT:          0 MISS:          0 MSHR_MERGE:          0
cpu0->cpu0_STLB TRANSLATION  ACCESS:          0 HIT:          0 MISS:          0 MSHR_MERGE:          0
cpu0->cpu0_STLB PREFETCH REQUESTED:          0 ISSUED:          0 USEFUL:          0 USELESS:          0
cpu0->cpu0_STLB AVERAGE MISS LATENCY: 849.1 cycles
cpu0->cpu0_L2C TOTAL        ACCESS:     144069 HIT:     104403 MISS:      39666 MSHR_MERGE:          0
cpu0->cpu0_L2C LOAD         ACCESS:      75352 HIT:      59998 MISS:      15354 MSHR_MERGE:          0
cpu0->cpu0_L2C RFO          ACCESS:      14742 HIT:      13790 MISS:        952 MSHR_MERGE:          0
cpu0->cpu0_L2C PREFETCH     ACCESS:          0 HIT:          0 MISS:          0 MSHR_MERGE:          0
cpu0->cpu0_L2C WRITE        ACCESS:      27159 HIT:      27114 MISS:         45 MSHR_MERGE:          0
cpu0->cpu0_L2C TRANSLATION  ACCESS:      26816 HIT:       3501 MISS:      23315 MSHR_MERGE:          0
cpu0->cpu0_L2C PREFETCH REQUESTED:          0 ISSUED:          0 USEFUL:          0 USELESS:          0
cpu0->cpu0_L2C AVERAGE MISS LATENCY: 153.2 cycles
cpu0->cpu0_L1I TOTAL        ACCESS:    5825172 HIT:    5766114 MISS:      59058 MSHR_MERGE:      14099
cpu0->cpu0_L1I LOAD         ACCESS:    5825172 HIT:    5766114 MISS:      59058 MSHR_MERGE:      14099
cpu0->cpu0_L1I RFO          ACCESS:          0 HIT:          0 MISS:          0 MSHR_MERGE:          0
cpu0->cpu0_L1I PREFETCH     ACCESS:          0 HIT:          0 MISS:          0 MSHR_MERGE:          0
cpu0->cpu0_L1I WRITE        ACCESS:          0 HIT:          0 MISS:          0 MSHR_MERGE:          0
cpu0->cpu0_L1I TRANSLATION  ACCESS:          0 HIT:          0 MISS:          0 MSHR_MERGE:          0
cpu0->cpu0_L1I PREFETCH REQUESTED:          0 ISSUED:          0 USEFUL:          0 USELESS:          0
cpu0->cpu0_L1I AVERAGE MISS LATENCY: 7.309 cycles
cpu0->cpu0_L1D TOTAL        ACCESS:   15198782 HIT:   15092566 MISS:     106216 MSHR_MERGE:      34261
cpu0->cpu0_L1D LOAD         ACCESS:    9205482 HIT:    9164859 MISS:      40623 MSHR_MERGE:      10226
cpu0->cpu0_L1D RFO          ACCESS:          0 HIT:          0 MISS:          0 MSHR_MERGE:          0
cpu0->cpu0_L1D PREFETCH     ACCESS:          0 HIT:          0 MISS:          0 MSHR_MERGE:          0
cpu0->cpu0_L1D WRITE        ACCESS:    5965743 HIT:    5927025 MISS:      38718 MSHR_MERGE:      23976
cpu0->cpu0_L1D TRANSLATION  ACCESS:      27557 HIT:        682 MISS:      26875 MSHR_MERGE:         59
cpu0->cpu0_L1D PREFETCH REQUESTED:          0 ISSUED:          0 USEFUL:          0 USELESS:          0
cpu0->cpu0_L1D AVERAGE MISS LATENCY: 92.84 cycles
cpu0->cpu0_ITLB TOTAL        ACCESS:    4950196 HIT:    4950196 MISS:          0 MSHR_MERGE:          0
cpu0->cpu0_ITLB LOAD         ACCESS:    4950196 HIT:    4950196 MISS:          0 MSHR_MERGE:          0
cpu0->cpu0_ITLB RFO          ACCESS:          0 HIT:          0 MISS:          0 MSHR_MERGE:          0
cpu0->cpu0_ITLB PREFETCH     ACCESS:          0 HIT:          0 MISS:          0 MSHR_MERGE:          0
cpu0->cpu0_ITLB WRITE        ACCESS:          0 HIT:          0 MISS:          0 MSHR_MERGE:          0
cpu0->cpu0_ITLB TRANSLATION  ACCESS:          0 HIT:          0 MISS:          0 MSHR_MERGE:          0
cpu0->cpu0_ITLB PREFETCH REQUESTED:          0 ISSUED:          0 USEFUL:          0 USELESS:          0
cpu0->cpu0_ITLB AVERAGE MISS LATENCY: - cycles
cpu0->cpu0_DTLB TOTAL        ACCESS:   14277833 HIT:   14251183 MISS:      26650 MSHR_MERGE:      12883
cpu0->cpu0_DTLB LOAD         ACCESS:   14277833 HIT:   14251183 MISS:      26650 MSHR_MERGE:      12883
cpu0->cpu0_DTLB RFO          ACCESS:          0 HIT:          0 MISS:          0 MSHR_MERGE:          0
cpu0->cpu0_DTLB PREFETCH     ACCESS:          0 HIT:          0 MISS:          0 MSHR_MERGE:          0
cpu0->cpu0_DTLB WRITE        ACCESS:          0 HIT:          0 MISS:          0 MSHR_MERGE:          0
cpu0->cpu0_DTLB TRANSLATION  ACCESS:          0 HIT:          0 MISS:          0 MSHR_MERGE:          0
cpu0->cpu0_DTLB PREFETCH REQUESTED:          0 ISSUED:          0 USEFUL:          0 USELESS:          0
cpu0->cpu0_DTLB AVERAGE MISS LATENCY: 569.4 cycles
cpu0->LLC TOTAL        ACCESS:      50455 HIT:      16461 MISS:      33994 MSHR_MERGE:          0
cpu0->LLC LOAD         ACCESS:      15354 HIT:       1057 MISS:      14297 MSHR_MERGE:          0
cpu0->LLC RFO          ACCESS:        952 HIT:        567 MISS:        385 MSHR_MERGE:          0
cpu0->LLC PREFETCH     ACCESS:          0 HIT:          0 MISS:          0 MSHR_MERGE:          0
cpu0->LLC WRITE        ACCESS:      10834 HIT:      10791 MISS:         43 MSHR_MERGE:          0
cpu0->LLC TRANSLATION  ACCESS:      23315 HIT:       4046 MISS:      19269 MSHR_MERGE:          0
cpu0->LLC PREFETCH REQUESTED:          0 ISSUED:          0 USEFUL:          0 USELESS:          0
cpu0->LLC AVERAGE MISS LATENCY: 160.2 cycles

DRAM Statistics

Channel 0 RQ ROW_BUFFER_HIT:         16
  ROW_BUFFER_MISS:      33935
  AVG DBUS CONGESTED CYCLE: 6.104
Channel 0 WQ ROW_BUFFER_HIT:         62
  ROW_BUFFER_MISS:       3211
  FULL:          0
Channel 0 REFRESHES ISSUED:       3861
