[VMEM] WARNING: physical memory size is smaller than virtual memory size.

*** ChampSim Multicore Out-of-Order Simulator ***
Warmup Instructions: 10000000
Simulation Instructions: 50000000
Number of CPUs: 1
Page size: 4096

Off-chip DRAM Size: 16 GiB Channels: 1 Width: 64-bit Data Rate: 3205 MT/s
Heartbeat CPU 0 instructions: 10000001 cycles: 2804500 heartbeat IPC: 3.566 cumulative IPC: 3.566 (Simulation time: 00 hr 00 min 24 sec)
Warmup finished CPU 0 instructions: 10000001 cycles: 2804500 cumulative IPC: 3.566 (Simulation time: 00 hr 00 min 24 sec)
Warmup complete CPU 0 instructions: 10000001 cycles: 2804500 cumulative IPC: 3.566 (Simulation time: 00 hr 00 min 24 sec)
Heartbeat CPU 0 instructions: 20000001 cycles: 14236114 heartbeat IPC: 0.8748 cumulative IPC: 0.8748 (Simulation time: 00 hr 01 min 19 sec)
Heartbeat CPU 0 instructions: 30000005 cycles: 25741759 heartbeat IPC: 0.8691 cumulative IPC: 0.8719 (Simulation time: 00 hr 02 min 14 sec)
Heartbeat CPU 0 instructions: 40000008 cycles: 37199047 heartbeat IPC: 0.8728 cumulative IPC: 0.8722 (Simulation time: 00 hr 03 min 08 sec)
Heartbeat CPU 0 instructions: 50000009 cycles: 48612687 heartbeat IPC: 0.8761 cumulative IPC: 0.8732 (Simulation time: 00 hr 04 min 03 sec)
Simulation finished CPU 0 instructions: 50000004 cycles: 57282418 cumulative IPC: 0.8729 (Simulation time: 00 hr 04 min 58 sec)
Simulation complete CPU 0 instructions: 50000004 cycles: 57282418 cumulative IPC: 0.8729 (Simulation time: 00 hr 04 min 58 sec)

ChampSim completed all CPUs

=== Simulation ===
CPU 0 runs traces/603.bwaves_s-2931B.champsimtrace.xz

Region of Interest Statistics

CPU 0 cumulative IPC: 0.8729 instructions: 50000004 cycles: 57282418
CPU 0 Branch Prediction Accuracy: 80.62% MPKI: 1.636 Average ROB Occupancy at Mispredict: 296.8
Branch type MPKI
BRANCH_DIRECT_JUMP: 0
BRANCH_INDIRECT: 0
BRANCH_CONDITIONAL: 1.636
BRANCH_DIRECT_CALL: 0
BRANCH_INDIRECT_CALL: 0
BRANCH_RETURN: 0

cpu0->cpu0_STLB TOTAL        ACCESS:      87202 HIT:      76558 MISS:      10644 MSHR_MERGE:          0
cpu0->cpu0_STLB LOAD         ACCESS:      87202 HIT:      76558 MISS:      10644 MSHR_MERGE:          0
cpu0->cpu0_STLB RFO          ACCESS:          0 HIT:          0 MISS:          0 MSHR_MERGE:          0
cpu0->cpu0_STLB PREFETCH     ACCESS:          0 HIT:          0 MISS:          0 MSHR_MERGE:          0
cpu0->cpu0_STLB WRITE        ACCESS:          0 HIT:          0 MISS:          0 MSHR_MERGE:          0
cpu0->cpu0_STLB TRANSLATION  ACCESS:          0 HIT:          0 MISS:          0 MSHR_MERGE:          0
cpu0->cpu0_STLB PREFETCH REQUESTED:          0 ISSUED:          0 USEFUL:          0 USELESS:          0
cpu0->cpu0_STLB AVERAGE MISS LATENCY: 701.8 cycles
cpu0->cpu0_L2C TOTAL        ACCESS:    1173887 HIT:     428230 MISS:     745657 MSHR_MERGE:          0
cpu0->cpu0_L2C LOAD         ACCESS:     518409 HIT:      82741 MISS:     435668 MSHR_MERGE:          0
cpu0->cpu0_L2C RFO          ACCESS:     315184 HIT:      17488 MISS:     297696 MSHR_MERGE:          0
cpu0->cpu0_L2C PREFETCH     ACCESS:          0 HIT:          0 MISS:          0 MSHR_MERGE:          0
cpu0->cpu0_L2C WRITE        ACCESS:     319053 HIT:     319029 MISS:         24 MSHR_MERGE:          0
cpu0->cpu0_L2C TRANSLATION  ACCESS:      21241 HIT:       8972 MISS:      12269 MSHR_MERGE:          0
cpu0->cpu0_L2C PREFETCH REQUESTED:          0 ISSUED:          0 USEFUL:          0 USELESS:          0
cpu0->cpu0_L2C AVERAGE MISS LATENCY: 223.6 cycles
cpu0->cpu0_L1I TOTAL        ACCESS:    5672692 HIT:    5672684 MISS:          8 MSHR_MERGE:          1
cpu0->cpu0_L1I LOAD         ACCESS:    5672692 HIT:    5672684 MISS:          8 MSHR_MERGE:          1
cpu0->cpu0_L1I RFO          ACCESS:          0 HIT:          0 MISS:          0 MSHR_MERGE:          0
cpu0->cpu0_L1I PREFETCH     ACCESS:          0 HIT:          0 MISS:          0 MSHR_MERGE:          0
cpu0->cpu0_L1I WRITE        ACCESS:          0 HIT:          0 MISS:          0 MSHR_MERGE:          0
cpu0->cpu0_L1I TRANSLATION  ACCESS:          0 HIT:          0 MISS:          0 MSHR_MERGE:          0
cpu0->cpu0_L1I PREFETCH REQUESTED:          0 ISSUED:          0 USEFUL:          0 USELESS:          0
cpu0->cpu0_L1I AVERAGE MISS LATENCY: 236.4 cycles
cpu0->cpu0_L1D TOTAL        ACCESS:   17005917 HIT:   15388935 MISS:    1616982 MSHR_MERGE:     761815
cpu0->cpu0_L1D LOAD         ACCESS:    7838284 HIT:    7313279 MISS:     525005 MSHR_MERGE:       6580
cpu0->cpu0_L1D RFO          ACCESS:          0 HIT:          0 MISS:          0 MSHR_MERGE:          0
cpu0->cpu0_L1D PREFETCH     ACCESS:          0 HIT:          0 MISS:          0 MSHR_MERGE:          0
cpu0->cpu0_L1D WRITE        ACCESS:    9146318 HIT:    8075585 MISS:    1070733 MSHR_MERGE:     755232
cpu0->cpu0_L1D TRANSLATION  ACCESS:      21315 HIT:         71 MISS:      21244 MSHR_MERGE:          3
cpu0->cpu0_L1D PREFETCH REQUESTED:          0 ISSUED:          0 USEFUL:          0 USELESS:          0
cpu0->cpu0_L1D AVERAGE MISS LATENCY: 203.9 cycles
cpu0->cpu0_ITLB TOTAL        ACCESS:    4534284 HIT:    4534284 MISS:          0 MSHR_MERGE:          0
cpu0->cpu0_ITLB LOAD         ACCESS:    4534284 HIT:    4534284 MISS:          0 MSHR_MERGE:          0
cpu0->cpu0_ITLB RFO          ACCESS:          0 HIT:          0 MISS:          0 MSHR_MERGE:          0
cpu0->cpu0_ITLB PREFETCH     ACCESS:          0 HIT:          0 MISS:          0 MSHR_MERGE:          0
cpu0->cpu0_ITLB WRITE        ACCESS:          0 HIT:          0 MISS:          0 MSHR_MERGE:          0
cpu0->cpu0_ITLB TRANSLATION  ACCESS:          0 HIT:          0 MISS:          0 MSHR_MERGE:          0
cpu0->cpu0_ITLB PREFETCH REQUESTED:          0 ISSUED:          0 USEFUL:          0 USELESS:          0
cpu0->cpu0_ITLB AVERAGE MISS LATENCY: - cycles
cpu0->cpu0_DTLB TOTAL        ACCESS:   15714482 HIT:   15616876 MISS:      97606 MSHR_MERGE:      10404
cpu0->cpu0_DTLB LOAD         ACCESS:   15714482 HIT:   15616876 MISS:      97606 MSHR_MERGE:      10404
cpu0->cpu0_DTLB RFO          ACCESS:          0 HIT:          0 MISS:          0 MSHR_MERGE:          0
cpu0->cpu0_DTLB PREFETCH     ACCESS:          0 HIT:          0 MISS:          0 MSHR_MERGE:          0
cpu0->cpu0_DTLB WRITE        ACCESS:          0 HIT:          0 MISS:          0 MSHR_MERGE:          0
cpu0->cpu0_DTLB TRANSLATION  ACCESS:          0 HIT:          0 MISS:          0 MSHR_MERGE:          0
cpu0->cpu0_DTLB PREFETCH REQUESTED:          0 ISSUED:          0 USEFUL:          0 USELESS:          0
cpu0->cpu0_DTLB AVERAGE MISS LATENCY: 90.8 cycles
cpu0->LLC TOTAL        ACCESS:    1043383 HIT:     349526 MISS:     693857 MSHR_MERGE:          0
cpu0->LLC LOAD         ACCESS:     435668 HIT:      51796 MISS:     383872 MSHR_MERGE:          0
cpu0->LLC RFO          ACCESS:     297696 HIT:          0 MISS:     297696 MSHR_MERGE:          0
cpu0->LLC PREFETCH     ACCESS:          0 HIT:          0 MISS:          0 MSHR_MERGE:          0
cpu0->LLC WRITE        ACCESS:     297750 HIT:     297730 MISS:         20 MSHR_MERGE:          0
cpu0->LLC TRANSLATION  ACCESS:      12269 HIT:          0 MISS:      12269 MSHR_MERGE:          0
cpu0->LLC PREFETCH REQUESTED:          0 ISSUED:          0 USEFUL:          0 USELESS:          0
cpu0->LLC AVERAGE MISS LATENCY: 223.2 cycles

DRAM Statistics

Channel 0 RQ ROW_BUFFER_HIT:          7
  ROW_BUFFER_MISS:     693830
  AVG DBUS CONGESTED CYCLE: 11.82
Channel 0 WQ ROW_BUFFER_HIT:     107141
  ROW_BUFFER_MISS:     190857
  FULL:          0
Channel 0 REFRESHES ISSUED:       4774
