[VMEM] WARNING: physical memory size is smaller than virtual memory size.

*** ChampSim Multicore Out-of-Order Simulator ***
Warmup Instructions: 10000000
Simulation Instructions: 50000000
Number of CPUs: 1
Page size: 4096

Off-chip DRAM Size: 16 GiB Channels: 1 Width: 64-bit Data Rate: 3205 MT/s
Heartbeat CPU 0 instructions: 10000001 cycles: 2560982 heartbeat IPC: 3.905 cumulative IPC: 3.905 (Simulation time: 00 hr 00 min 19 sec)
Warmup finished CPU 0 instructions: 10000001 cycles: 2560982 cumulative IPC: 3.905 (Simulation time: 00 hr 00 min 19 sec)
Warmup complete CPU 0 instructions: 10000001 cycles: 2560982 cumulative IPC: 3.905 (Simulation time: 00 hr 00 min 19 sec)
Heartbeat CPU 0 instructions: 20000002 cycles: 8173680 heartbeat IPC: 1.782 cumulative IPC: 1.782 (Simulation time: 00 hr 00 min 46 sec)
Heartbeat CPU 0 instructions: 30000004 cycles: 13807745 heartbeat IPC: 1.775 cumulative IPC: 1.778 (Simulation time: 00 hr 01 min 13 sec)
Heartbeat CPU 0 instructions: 40000007 cycles: 19397020 heartbeat IPC: 1.789 cumulative IPC: 1.782 (Simulation time: 00 hr 01 min 40 sec)
Heartbeat CPU 0 instructions: 50000009 cycles: 24950866 heartbeat IPC: 1.801 cumulative IPC: 1.787 (Simulation time: 00 hr 02 min 07 sec)
Simulation finished CPU 0 instructions: 50000000 cycles: 27911280 cumulative IPC: 1.791 (Simulation time: 00 hr 02 min 33 sec)
Simulation complete CPU 0 instructions: 50000000 cycles: 27911280 cumulative IPC: 1.791 (Simulation time: 00 hr 02 min 33 sec)

ChampSim completed all CPUs

=== Simulation ===
CPU 0 runs traces/644.nab_s-12459B.champsimtrace.xz

Region of Interest Statistics

CPU 0 cumulative IPC: 1.791 instructions: 50000000 cycles: 27911280
CPU 0 Branch Prediction Accuracy: 95.16% MPKI: 6.912 Average ROB Occupancy at Mispredict: 76.7
Branch type MPKI
BRANCH_DIRECT_JUMP: 0.2759
BRANCH_INDIRECT: 0
BRANCH_CONDITIONAL: 6.636
BRANCH_DIRECT_CALL: 0
BRANCH_INDIRECT_CALL: 0
BRANCH_RETURN: 0

cpu0->cpu0_STLB TOTAL        ACCESS:      11017 HIT:      10877 MISS:        140 MSHR_MERGE:          0
cpu0->cpu0_STLB LOAD         ACCESS:      11017 HIT:      10877 MISS:        140 MSHR_MERGE:          0
cpu0->cpu0_STLB RFO          ACCESS:          0 HIT:          0 MISS:          0 MSHR_MERGE:          0
cpu0->cpu0_STLB PREFETCH     ACCESS:          0 HIT:          0 MISS:          0 MSHR_MERGE:          0
cpu0->cpu0_STLB WRITE        ACCESS:          0 HIT:          0 MISS:          0 MSHR_MERGE:          0
cpu0->cpu0_STLB TRANSLATION  ACCESS:          0 HIT:          0 MISS:          0 MSHR_MERGE:          0
cpu0->cpu0_STLB PREFETCH REQUESTED:          0 ISSUED:          0 USEFUL:          0 USELESS:          0
cpu0->cpu0_STLB AVERAGE MISS LATENCY: 689.2 cycles
cpu0->cpu0_L2C TOTAL        ACCESS:     333250 HIT:     282943 MISS:      50307 MSHR_MERGE:          0
cpu0->cpu0_L2C LOAD         ACCESS:     291512 HIT:     249099 MISS:      42413 MSHR_MERGE:          0
cpu0->cpu0_L2C RFO          ACCESS:      16650 HIT:       8965 MISS:       7685 MSHR_MERGE:          0
cpu0->cpu0_L2C PREFETCH     ACCESS:          0 HIT:          0 MISS:          0 MSHR_MERGE:          0
cpu0->cpu0_L2C WRITE        ACCESS:      24867 HIT:      24861 MISS:          6 MSHR_MERGE:          0
cpu0->cpu0_L2C TRANSLATION  ACCESS:        221 HIT:         18 MISS:        203 MSHR_MERGE:          0
cpu0->cpu0_L2C PREFETCH REQUESTED:          0 ISSUED:          0 USEFUL:          0 USELESS:          0
cpu0->cpu0_L2C AVERAGE MISS LATENCY: 44.86 cycles
cpu0->cpu0_L1I TOTAL        ACCESS:     157880 HIT:     157880 MISS:          0 MSHR_MERGE:          0
cpu0->cpu0_L1I LOAD         ACCESS:     157880 HIT:     157880 MISS:          0 MSHR_MERGE:          0
cpu0->cpu0_L1I RFO          ACCESS:          0 HIT:          0 MISS:          0 MSHR_MERGE:          0
cpu0->cpu0_L1I PREFETCH     ACCESS:          0 HIT:          0 MISS:          0 MSHR_MERGE:          0
cpu0->cpu0_L1I WRITE        ACCESS:          0 HIT:          0 MISS:          0 MSHR_MERGE:          0
cpu0->cpu0_L1I TRANSLATION  ACCESS:          0 HIT:          0 MISS:          0 MSHR_MERGE:          0
cpu0->cpu0_L1I PREFETCH REQUESTED:          0 ISSUED:          0 USEFUL:          0 USELESS:          0
cpu0->cpu0_L1I AVERAGE MISS LATENCY: - cycles
cpu0->cpu0_L1D TOTAL        ACCESS:   13139334 HIT:   12640165 MISS:     499169 MSHR_MERGE:     190786
cpu0->cpu0_L1D LOAD         ACCESS:    8133355 HIT:    7769742 MISS:     363613 MSHR_MERGE:      72101
cpu0->cpu0_L1D RFO          ACCESS:          0 HIT:          0 MISS:          0 MSHR_MERGE:          0
cpu0->cpu0_L1D PREFETCH     ACCESS:          0 HIT:          0 MISS:          0 MSHR_MERGE:          0
cpu0->cpu0_L1D WRITE        ACCESS:    5005699 HIT:    4870367 MISS:     135332 MSHR_MERGE:     118682
cpu0->cpu0_L1D TRANSLATION  ACCESS:        280 HIT:         56 MISS:        224 MSHR_MERGE:          3
cpu0->cpu0_L1D PREFETCH REQUESTED:          0 ISSUED:          0 USEFUL:          0 USELESS:          0
cpu0->cpu0_L1D AVERAGE MISS LATENCY: 15.49 cycles
cpu0->cpu0_ITLB TOTAL        ACCESS:     135814 HIT:     135814 MISS:          0 MSHR_MERGE:          0
cpu0->cpu0_ITLB LOAD         ACCESS:     135814 HIT:     135814 MISS:          0 MSHR_MERGE:          0
cpu0->cpu0_ITLB RFO          ACCESS:          0 HIT:          0 MISS:          0 MSHR_MERGE:          0
cpu0->cpu0_ITLB PREFETCH     ACCESS:          0 HIT:          0 MISS:          0 MSHR_MERGE:          0
cpu0->cpu0_ITLB WRITE        ACCESS:          0 HIT:          0 MISS:          0 MSHR_MERGE:          0
cpu0->cpu0_ITLB TRANSLATION  ACCESS:          0 HIT:          0 MISS:          0 MSHR_MERGE:          0
cpu0->cpu0_ITLB PREFETCH REQUESTED:          0 ISSUED:          0 USEFUL:          0 USELESS:          0
cpu0->cpu0_ITLB AVERAGE MISS LATENCY: - cycles
cpu0->cpu0_DTLB TOTAL        ACCESS:   12410620 HIT:   12396161 MISS:      14459 MSHR_MERGE:       3442
cpu0->cpu0_DTLB LOAD         ACCESS:   12410620 HIT:   12396161 MISS:      14459 MSHR_MERGE:       3442
cpu0->cpu0_DTLB RFO          ACCESS:          0 HIT:          0 MISS:          0 MSHR_MERGE:          0
cpu0->cpu0_DTLB PREFETCH     ACCESS:          0 HIT:          0 MISS:          0 MSHR_MERGE:          0
cpu0->cpu0_DTLB WRITE        ACCESS:          0 HIT:          0 MISS:          0 MSHR_MERGE:          0
cpu0->cpu0_DTLB TRANSLATION  ACCESS:          0 HIT:          0 MISS:          0 MSHR_MERGE:          0
cpu0->cpu0_DTLB PREFETCH REQUESTED:          0 ISSUED:          0 USEFUL:          0 USELESS:          0
cpu0->cpu0_DTLB AVERAGE MISS LATENCY: 13.77 cycles
cpu0->LLC TOTAL        ACCESS:      56961 HIT:      47564 MISS:       9397 MSHR_MERGE:          0
cpu0->LLC LOAD         ACCESS:      42413 HIT:      40777 MISS:       1636 MSHR_MERGE:          0
cpu0->LLC RFO          ACCESS:       7685 HIT:        111 MISS:       7574 MSHR_MERGE:          0
cpu0->LLC PREFETCH     ACCESS:          0 HIT:          0 MISS:          0 MSHR_MERGE:          0
cpu0->LLC WRITE        ACCESS:       6660 HIT:       6660 MISS:          0 MSHR_MERGE:          0
cpu0->LLC TRANSLATION  ACCESS:        203 HIT:         16 MISS:        187 MSHR_MERGE:          0
cpu0->LLC PREFETCH REQUESTED:          0 ISSUED:          0 USEFUL:          0 USELESS:          0
cpu0->LLC AVERAGE MISS LATENCY: 158.9 cycles

DRAM Statistics

Channel 0 RQ ROW_BUFFER_HIT:       2612
  ROW_BUFFER_MISS:       6785
  AVG DBUS CONGESTED CYCLE: 2.685
Channel 0 WQ ROW_BUFFER_HIT:          0
  ROW_BUFFER_MISS:          1
  FULL:          0
Channel 0 REFRESHES ISSUED:       2326
