[VMEM] WARNING: physical memory size is smaller than virtual memory size.

*** ChampSim Multicore Out-of-Order Simulator ***
Warmup Instructions: 10000000
Simulation Instructions: 50000000
Number of CPUs: 1
Page size: 4096

Off-chip DRAM Size: 16 GiB Channels: 1 Width: 64-bit Data Rate: 3205 MT/s
Heartbeat CPU 0 instructions: 10000000 cycles: 2862831 heartbeat IPC: 3.493 cumulative IPC: 3.493 (Simulation time: 00 hr 00 min 21 sec)
Warmup finished CPU 0 instructions: 10000000 cycles: 2862831 cumulative IPC: 3.493 (Simulation time: 00 hr 00 min 21 sec)
Warmup complete CPU 0 instructions: 10000000 cycles: 2862831 cumulative IPC: 3.493 (Simulation time: 00 hr 00 min 21 sec)
Heartbeat CPU 0 instructions: 20000000 cycles: 10041556 heartbeat IPC: 1.393 cumulative IPC: 1.393 (Simulation time: 00 hr 00 min 57 sec)
Heartbeat CPU 0 instructions: 30000002 cycles: 19797784 heartbeat IPC: 1.025 cumulative IPC: 1.181 (Simulation time: 00 hr 01 min 45 sec)
Heartbeat CPU 0 instructions: 40000004 cycles: 27889581 heartbeat IPC: 1.236 cumulative IPC: 1.199 (Simulation time: 00 hr 02 min 25 sec)
Heartbeat CPU 0 instructions: 50000006 cycles: 37034424 heartbeat IPC: 1.094 cumulative IPC: 1.171 (Simulation time: 00 hr 03 min 10 sec)
Simulation finished CPU 0 instructions: 50000003 cycles: 43603180 cumulative IPC: 1.147 (Simulation time: 00 hr 03 min 56 sec)
Simulation complete CPU 0 instructions: 50000003 cycles: 43603180 cumulative IPC: 1.147 (Simulation time: 00 hr 03 min 56 sec)

ChampSim completed all CPUs

=== Simulation ===
CPU 0 runs traces/627.cam4_s-490B.champsimtrace.xz

Region of Interest Statistics

CPU 0 cumulative IPC: 1.147 instructions: 50000003 cycles: 43603180
CPU 0 Branch Prediction Accuracy: 95.2% MPKI: 4.631 Average ROB Occupancy at Mispredict: 74.07
Branch type MPKI
BRANCH_DIRECT_JUMP: 0.00628
BRANCH_INDIRECT: 0
BRANCH_CONDITIONAL: 4.625
BRANCH_DIRECT_CALL: 0.0001
BRANCH_INDIRECT_CALL: 0
BRANCH_RETURN: 0.00014

cpu0->cpu0_STLB TOTAL        ACCESS:      15735 HIT:      14878 MISS:        857 MSHR_MERGE:          0
cpu0->cpu0_STLB LOAD         ACCESS:      15735 HIT:      14878 MISS:        857 MSHR_MERGE:          0
cpu0->cpu0_STLB RFO          ACCESS:          0 HIT:          0 MISS:          0 MSHR_MERGE:          0
cpu0->cpu0_STLB PREFETCH     ACCESS:          0 HIT:          0 MISS:          0 MSHR_MERGE:          0
cpu0->cpu0_STLB WRITE        ACCESS:          0 HIT:          0 MISS:          0 MSHR_MERGE:          0
cpu0->cpu0_STLB TRANSLATION  ACCESS:          0 HIT:          0 MISS:          0 MSHR_MERGE:          0
cpu0->cpu0_STLB PREFETCH REQUESTED:          0 ISSUED:          0 USEFUL:          0 USELESS:          0
cpu0->cpu0_STLB AVERAGE MISS LATENCY: 696.5 cycles
cpu0->cpu0_L2C TOTAL        ACCESS:    1299474 HIT:     690395 MISS:     609079 MSHR_MERGE:          0
cpu0->cpu0_L2C LOAD         ACCESS:     630675 HIT:     286788 MISS:     343887 MSHR_MERGE:          0
cpu0->cpu0_L2C RFO          ACCESS:     279575 HIT:      16051 MISS:     263524 MSHR_MERGE:          0
cpu0->cpu0_L2C PREFETCH     ACCESS:          0 HIT:          0 MISS:          0 MSHR_MERGE:          0
cpu0->cpu0_L2C WRITE        ACCESS:     388154 HIT:     387552 MISS:        602 MSHR_MERGE:          0
cpu0->cpu0_L2C TRANSLATION  ACCESS:       1070 HIT:          4 MISS:       1066 MSHR_MERGE:          0
cpu0->cpu0_L2C PREFETCH REQUESTED:          0 ISSUED:          0 USEFUL:          0 USELESS:          0
cpu0->cpu0_L2C AVERAGE MISS LATENCY: 120.7 cycles
cpu0->cpu0_L1I TOTAL        ACCESS:    3376866 HIT:    3374674 MISS:       2192 MSHR_MERGE:        984
cpu0->cpu0_L1I LOAD         ACCESS:    3376866 HIT:    3374674 MISS:       2192 MSHR_MERGE:        984
cpu0->cpu0_L1I RFO          ACCESS:          0 HIT:          0 MISS:          0 MSHR_MERGE:          0
cpu0->cpu0_L1I PREFETCH     ACCESS:          0 HIT:          0 MISS:          0 MSHR_MERGE:          0
cpu0->cpu0_L1I WRITE        ACCESS:          0 HIT:          0 MISS:          0 MSHR_MERGE:          0
cpu0->cpu0_L1I TRANSLATION  ACCESS:          0 HIT:          0 MISS:          0 MSHR_MERGE:          0
cpu0->cpu0_L1I PREFETCH REQUESTED:          0 ISSUED:          0 USEFUL:          0 USELESS:          0
cpu0->cpu0_L1I AVERAGE MISS LATENCY: 253.8 cycles
cpu0->cpu0_L1D TOTAL        ACCESS:    9934138 HIT:    7253993 MISS:    2680145 MSHR_MERGE:    1770032
cpu0->cpu0_L1D LOAD         ACCESS:    6623573 HIT:    5264408 MISS:    1359165 MSHR_MERGE:     729698
cpu0->cpu0_L1D RFO          ACCESS:          0 HIT:          0 MISS:          0 MSHR_MERGE:          0
cpu0->cpu0_L1D PREFETCH     ACCESS:          0 HIT:          0 MISS:          0 MSHR_MERGE:          0
cpu0->cpu0_L1D WRITE        ACCESS:    3308846 HIT:    1988937 MISS:    1319909 MSHR_MERGE:    1040333
cpu0->cpu0_L1D TRANSLATION  ACCESS:       1719 HIT:        648 MISS:       1071 MSHR_MERGE:          1
cpu0->cpu0_L1D PREFETCH REQUESTED:          0 ISSUED:          0 USEFUL:          0 USELESS:          0
cpu0->cpu0_L1D AVERAGE MISS LATENCY: 89.17 cycles
cpu0->cpu0_ITLB TOTAL        ACCESS:    3034830 HIT:    3034820 MISS:         10 MSHR_MERGE:          4
cpu0->cpu0_ITLB LOAD         ACCESS:    3034830 HIT:    3034820 MISS:         10 MSHR_MERGE:          4
cpu0->cpu0_ITLB RFO          ACCESS:          0 HIT:          0 MISS:          0 MSHR_MERGE:          0
cpu0->cpu0_ITLB PREFETCH     ACCESS:          0 HIT:          0 MISS:          0 MSHR_MERGE:          0
cpu0->cpu0_ITLB WRITE        ACCESS:          0 HIT:          0 MISS:          0 MSHR_MERGE:          0
cpu0->cpu0_ITLB TRANSLATION  ACCESS:          0 HIT:          0 MISS:          0 MSHR_MERGE:          0
cpu0->cpu0_ITLB PREFETCH REQUESTED:          0 ISSUED:          0 USEFUL:          0 USELESS:          0
cpu0->cpu0_ITLB AVERAGE MISS LATENCY: 978.5 cycles
cpu0->cpu0_DTLB TOTAL        ACCESS:    9630922 HIT:    9603339 MISS:      27583 MSHR_MERGE:      11854
cpu0->cpu0_DTLB LOAD         ACCESS:    9630922 HIT:    9603339 MISS:      27583 MSHR_MERGE:      11854
cpu0->cpu0_DTLB RFO          ACCESS:          0 HIT:          0 MISS:          0 MSHR_MERGE:          0
cpu0->cpu0_DTLB PREFETCH     ACCESS:          0 HIT:          0 MISS:          0 MSHR_MERGE:          0
cpu0->cpu0_DTLB WRITE        ACCESS:          0 HIT:          0 MISS:          0 MSHR_MERGE:          0
cpu0->cpu0_DTLB TRANSLATION  ACCESS:          0 HIT:          0 MISS:          0 MSHR_MERGE:          0
cpu0->cpu0_DTLB PREFETCH REQUESTED:          0 ISSUED:          0 USEFUL:          0 USELESS:          0
cpu0->cpu0_DTLB AVERAGE MISS LATENCY: 42.63 cycles
cpu0->LLC TOTAL        ACCESS:     926513 HIT:     687925 MISS:     238588 MSHR_MERGE:          0
cpu0->LLC LOAD         ACCESS:     343887 HIT:     239511 MISS:     104376 MSHR_MERGE:          0
cpu0->LLC RFO          ACCESS:     263523 HIT:     130385 MISS:     133138 MSHR_MERGE:          0
cpu0->LLC PREFETCH     ACCESS:          0 HIT:          0 MISS:          0 MSHR_MERGE:          0
cpu0->LLC WRITE        ACCESS:     318037 HIT:     318023 MISS:         14 MSHR_MERGE:          0
cpu0->LLC TRANSLATION  ACCESS:       1066 HIT:          6 MISS:       1060 MSHR_MERGE:          0
cpu0->LLC PREFETCH REQUESTED:          0 ISSUED:          0 USEFUL:          0 USELESS:          0
cpu0->LLC AVERAGE MISS LATENCY: 268.8 cycles

DRAM Statistics

Channel 0 RQ ROW_BUFFER_HIT:      13896
  ROW_BUFFER_MISS:     224316
  AVG DBUS CONGESTED CYCLE: 9.649
Channel 0 WQ ROW_BUFFER_HIT:      42786
  ROW_BUFFER_MISS:     139198
  FULL:          0
Channel 0 REFRESHES ISSUED:       3634
