[VMEM] WARNING: physical memory size is smaller than virtual memory size.

*** ChampSim Multicore Out-of-Order Simulator ***
Warmup Instructions: 10000000
Simulation Instructions: 50000000
Number of CPUs: 1
Page size: 4096

Off-chip DRAM Size: 16 GiB Channels: 1 Width: 64-bit Data Rate: 3205 MT/s
Heartbeat CPU 0 instructions: 10000000 cycles: 2700208 heartbeat IPC: 3.703 cumulative IPC: 3.703 (Simulation time: 00 hr 00 min 19 sec)
Warmup finished CPU 0 instructions: 10000000 cycles: 2700208 cumulative IPC: 3.703 (Simulation time: 00 hr 00 min 19 sec)
Warmup complete CPU 0 instructions: 10000000 cycles: 2700208 cumulative IPC: 3.703 (Simulation time: 00 hr 00 min 19 sec)
Heartbeat CPU 0 instructions: 20000000 cycles: 24154047 heartbeat IPC: 0.4661 cumulative IPC: 0.4661 (Simulation time: 00 hr 01 min 36 sec)
Heartbeat CPU 0 instructions: 30000001 cycles: 45584220 heartbeat IPC: 0.4666 cumulative IPC: 0.4664 (Simulation time: 00 hr 02 min 53 sec)
Heartbeat CPU 0 instructions: 40000002 cycles: 67141016 heartbeat IPC: 0.4639 cumulative IPC: 0.4655 (Simulation time: 00 hr 04 min 11 sec)
Heartbeat CPU 0 instructions: 50000003 cycles: 88738520 heartbeat IPC: 0.463 cumulative IPC: 0.4649 (Simulation time: 00 hr 05 min 28 sec)
Simulation finished CPU 0 instructions: 50000000 cycles: 107816317 cumulative IPC: 0.4638 (Simulation time: 00 hr 06 min 46 sec)
Simulation complete CPU 0 instructions: 50000000 cycles: 107816317 cumulative IPC: 0.4638 (Simulation time: 00 hr 06 min 46 sec)

ChampSim completed all CPUs

=== Simulation ===
CPU 0 runs traces/623.xalancbmk_s-165B.champsimtrace.xz

Region of Interest Statistics

CPU 0 cumulative IPC: 0.4638 instructions: 50000000 cycles: 107816317
CPU 0 Branch Prediction Accuracy: 95.53% MPKI: 12.46 Average ROB Occupancy at Mispredict: 47.85
Branch type MPKI
BRANCH_DIRECT_JUMP: 0
BRANCH_INDIRECT: 0
BRANCH_CONDITIONAL: 12.46
BRANCH_DIRECT_CALL: 0
BRANCH_INDIRECT_CALL: 0
BRANCH_RETURN: 0

cpu0->cpu0_STLB TOTAL        ACCESS:      17762 HIT:      17702 MISS:         60 MSHR_MERGE:          0
cpu0->cpu0_STLB LOAD         ACCESS:      17762 HIT:      17702 MISS:         60 MSHR_MERGE:          0
cpu0->cpu0_STLB RFO          ACCESS:          0 HIT:          0 MISS:          0 MSHR_MERGE:          0
cpu0->cpu0_STLB PREFETCH     ACCESS:          0 HIT:          0 MISS:          0 MSHR_MERGE:          0
cpu0->cpu0_STLB WRITE        ACCESS:          0 HIT:          0 MISS:          0 MSHR_MERGE:          0
cpu0->cpu0_STLB TRANSLATION  ACCESS:          0 HIT:          0 MISS:          0 MSHR_MERGE:          0
cpu0->cpu0_STLB PREFETCH REQUESTED:          0 ISSUED:          0 USEFUL:          0 USELESS:          0
cpu0->cpu0_STLB AVERAGE MISS LATENCY: 781.7 cycles
cpu0->cpu0_L2C TOTAL        ACCESS:     951705 HIT:        658 MISS:     951047 MSHR_MERGE:          0
cpu0->cpu0_L2C LOAD         ACCESS:     950908 HIT:        246 MISS:     950662 MSHR_MERGE:          0
cpu0->cpu0_L2C RFO          ACCESS:        280 HIT:          0 MISS:        280 MSHR_MERGE:          0
cpu0->cpu0_L2C PREFETCH     ACCESS:          0 HIT:          0 MISS:          0 MSHR_MERGE:          0
cpu0->cpu0_L2C WRITE        ACCESS:        412 HIT:        412 MISS:          0 MSHR_MERGE:          0
cpu0->cpu0_L2C TRANSLATION  ACCESS:        105 HIT:          0 MISS:        105 MSHR_MERGE:          0
cpu0->cpu0_L2C PREFETCH REQUESTED:          0 ISSUED:          0 USEFUL:          0 USELESS:          0
cpu0->cpu0_L2C AVERAGE MISS LATENCY: 127.5 cycles
cpu0->cpu0_L1I TOTAL        ACCESS:          5 HIT:          5 MISS:          0 MSHR_MERGE:          0
cpu0->cpu0_L1I LOAD         ACCESS:          5 HIT:          5 MISS:          0 MSHR_MERGE:          0
cpu0->cpu0_L1I RFO          ACCESS:          0 HIT:          0 MISS:          0 MSHR_MERGE:          0
cpu0->cpu0_L1I PREFETCH     ACCESS:          0 HIT:          0 MISS:          0 MSHR_MERGE:          0
cpu0->cpu0_L1I WRITE        ACCESS:          0 HIT:          0 MISS:          0 MSHR_MERGE:          0
cpu0->cpu0_L1I TRANSLATION  ACCESS:          0 HIT:          0 MISS:          0 MSHR_MERGE:          0
cpu0->cpu0_L1I PREFETCH REQUESTED:          0 ISSUED:          0 USEFUL:          0 USELESS:          0
cpu0->cpu0_L1I AVERAGE MISS LATENCY: - cycles
cpu0->cpu0_L1D TOTAL        ACCESS:   13788758 HIT:   10676460 MISS:    3112298 MSHR_MERGE:    2161005
cpu0->cpu0_L1D LOAD         ACCESS:   13132395 HIT:   10021572 MISS:    3110823 MSHR_MERGE:    2159915
cpu0->cpu0_L1D RFO          ACCESS:          0 HIT:          0 MISS:          0 MSHR_MERGE:          0
cpu0->cpu0_L1D PREFETCH     ACCESS:          0 HIT:          0 MISS:          0 MSHR_MERGE:          0
cpu0->cpu0_L1D WRITE        ACCESS:     656243 HIT:     654878 MISS:       1365 MSHR_MERGE:       1085
cpu0->cpu0_L1D TRANSLATION  ACCESS:        120 HIT:         10 MISS:        110 MSHR_MERGE:          5
cpu0->cpu0_L1D PREFETCH REQUESTED:          0 ISSUED:          0 USEFUL:          0 USELESS:          0
cpu0->cpu0_L1D AVERAGE MISS LATENCY: 136.5 cycles
cpu0->cpu0_ITLB TOTAL        ACCESS:          5 HIT:          5 MISS:          0 MSHR_MERGE:          0
cpu0->cpu0_ITLB LOAD         ACCESS:          5 HIT:          5 MISS:          0 MSHR_MERGE:          0
cpu0->cpu0_ITLB RFO          ACCESS:          0 HIT:          0 MISS:          0 MSHR_MERGE:          0
cpu0->cpu0_ITLB PREFETCH     ACCESS:          0 HIT:          0 MISS:          0 MSHR_MERGE:          0
cpu0->cpu0_ITLB WRITE        ACCESS:          0 HIT:          0 MISS:          0 MSHR_MERGE:          0
cpu0->cpu0_ITLB TRANSLATION  ACCESS:          0 HIT:          0 MISS:          0 MSHR_MERGE:          0
cpu0->cpu0_ITLB PREFETCH REQUESTED:          0 ISSUED:          0 USEFUL:          0 USELESS:          0
cpu0->cpu0_ITLB AVERAGE MISS LATENCY: - cycles
cpu0->cpu0_DTLB TOTAL        ACCESS:   13689465 HIT:   13647127 MISS:      42338 MSHR_MERGE:      24576
cpu0->cpu0_DTLB LOAD         ACCESS:   13689465 HIT:   13647127 MISS:      42338 MSHR_MERGE:      24576
cpu0->cpu0_DTLB RFO          ACCESS:          0 HIT:          0 MISS:          0 MSHR_MERGE:          0
cpu0->cpu0_DTLB PREFETCH     ACCESS:          0 HIT:          0 MISS:          0 MSHR_MERGE:          0
cpu0->cpu0_DTLB WRITE        ACCESS:          0 HIT:          0 MISS:          0 MSHR_MERGE:          0
cpu0->cpu0_DTLB TRANSLATION  ACCESS:          0 HIT:          0 MISS:          0 MSHR_MERGE:          0
cpu0->cpu0_DTLB PREFETCH REQUESTED:          0 ISSUED:          0 USEFUL:          0 USELESS:          0
cpu0->cpu0_DTLB AVERAGE MISS LATENCY: 7.644 cycles
cpu0->LLC TOTAL        ACCESS:     951462 HIT:     266774 MISS:     684688 MSHR_MERGE:          0
cpu0->LLC LOAD         ACCESS:     950662 HIT:     266355 MISS:     684307 MSHR_MERGE:          0
cpu0->LLC RFO          ACCESS:        280 HIT:          0 MISS:        280 MSHR_MERGE:          0
cpu0->LLC PREFETCH     ACCESS:          0 HIT:          0 MISS:          0 MSHR_MERGE:          0
cpu0->LLC WRITE        ACCESS:        415 HIT:        414 MISS:          1 MSHR_MERGE:          0
cpu0->LLC TRANSLATION  ACCESS:        105 HIT:          5 MISS:        100 MSHR_MERGE:          0
cpu0->LLC PREFETCH REQUESTED:          0 ISSUED:          0 USEFUL:          0 USELESS:          0
cpu0->LLC AVERAGE MISS LATENCY: 155.3 cycles

DRAM Statistics

Channel 0 RQ ROW_BUFFER_HIT:     187562
  ROW_BUFFER_MISS:     497125
  AVG DBUS CONGESTED CYCLE: 3.062
Channel 0 WQ ROW_BUFFER_HIT:         72
  ROW_BUFFER_MISS:        203
  FULL:          0
Channel 0 REFRESHES ISSUED:       8984
