[VMEM] WARNING: physical memory size is smaller than virtual memory size.

*** ChampSim Multicore Out-of-Order Simulator ***
Warmup Instructions: 10000000
Simulation Instructions: 50000000
Number of CPUs: 1
Page size: 4096

Off-chip DRAM Size: 16 GiB Channels: 1 Width: 64-bit Data Rate: 3205 MT/s
Heartbeat CPU 0 instructions: 10000002 cycles: 2777504 heartbeat IPC: 3.6 cumulative IPC: 3.6 (Simulation time: 00 hr 00 min 20 sec)
Warmup finished CPU 0 instructions: 10000002 cycles: 2777504 cumulative IPC: 3.6 (Simulation time: 00 hr 00 min 20 sec)
Warmup complete CPU 0 instructions: 10000002 cycles: 2777504 cumulative IPC: 3.6 (Simulation time: 00 hr 00 min 20 sec)
Heartbeat CPU 0 instructions: 20000005 cycles: 12128228 heartbeat IPC: 1.069 cumulative IPC: 1.069 (Simulation time: 00 hr 01 min 16 sec)
Heartbeat CPU 0 instructions: 30000007 cycles: 19367903 heartbeat IPC: 1.381 cumulative IPC: 1.206 (Simulation time: 00 hr 02 min 02 sec)
Heartbeat CPU 0 instructions: 40000010 cycles: 28713690 heartbeat IPC: 1.07 cumulative IPC: 1.157 (Simulation time: 00 hr 02 min 59 sec)
Heartbeat CPU 0 instructions: 50000014 cycles: 35804138 heartbeat IPC: 1.41 cumulative IPC: 1.211 (Simulation time: 00 hr 03 min 44 sec)
Simulation finished CPU 0 instructions: 50000001 cycles: 42418502 cumulative IPC: 1.179 (Simulation time: 00 hr 04 min 41 sec)
Simulation complete CPU 0 instructions: 50000001 cycles: 42418502 cumulative IPC: 1.179 (Simulation time: 00 hr 04 min 41 sec)

ChampSim completed all CPUs

=== Simulation ===
CPU 0 runs traces/654.roms_s-293B.champsimtrace.xz

Region of Interest Statistics

CPU 0 cumulative IPC: 1.179 instructions: 50000001 cycles: 42418502
CPU 0 Branch Prediction Accuracy: 99.78% MPKI: 0.0285 Average ROB Occupancy at Mispredict: 311.6
Branch type MPKI
BRANCH_DIRECT_JUMP: 0
BRANCH_INDIRECT: 0
BRANCH_CONDITIONAL: 0.0285
BRANCH_DIRECT_CALL: 0
BRANCH_INDIRECT_CALL: 0
BRANCH_RETURN: 0

cpu0->cpu0_STLB TOTAL        ACCESS:      14293 HIT:       9253 MISS:       5040 MSHR_MERGE:          0
cpu0->cpu0_STLB LOAD         ACCESS:      14293 HIT:       9253 MISS:       5040 MSHR_MERGE:          0
cpu0->cpu0_STLB RFO          ACCESS:          0 HIT:          0 MISS:          0 MSHR_MERGE:          0
cpu0->cpu0_STLB PREFETCH     ACCESS:          0 HIT:          0 MISS:          0 MSHR_MERGE:          0
cpu0->cpu0_STLB WRITE        ACCESS:          0 HIT:          0 MISS:          0 MSHR_MERGE:          0
cpu0->cpu0_STLB TRANSLATION  ACCESS:          0 HIT:          0 MISS:          0 MSHR_MERGE:          0
cpu0->cpu0_STLB PREFETCH REQUESTED:          0 ISSUED:          0 USEFUL:          0 USELESS:          0
cpu0->cpu0_STLB AVERAGE MISS LATENCY: 888.6 cycles
cpu0->cpu0_L2C TOTAL        ACCESS:     878806 HIT:     356996 MISS:     521810 MSHR_MERGE:          0
cpu0->cpu0_L2C LOAD         ACCESS:     366080 HIT:     103673 MISS:     262407 MSHR_MERGE:          0
cpu0->cpu0_L2C RFO          ACCESS:     250793 HIT:        869 MISS:     249924 MSHR_MERGE:          0
cpu0->cpu0_L2C PREFETCH     ACCESS:          0 HIT:          0 MISS:          0 MSHR_MERGE:          0
cpu0->cpu0_L2C WRITE        ACCESS:     251767 HIT:     251428 MISS:        339 MSHR_MERGE:          0
cpu0->cpu0_L2C TRANSLATION  ACCESS:      10166 HIT:       1026 MISS:       9140 MSHR_MERGE:          0
cpu0->cpu0_L2C PREFETCH REQUESTED:          0 ISSUED:          0 USEFUL:          0 USELESS:          0
cpu0->cpu0_L2C AVERAGE MISS LATENCY: 171.3 cycles
cpu0->cpu0_L1I TOTAL        ACCESS:   10011729 HIT:   10011729 MISS:          0 MSHR_MERGE:          0
cpu0->cpu0_L1I LOAD         ACCESS:   10011729 HIT:   10011729 MISS:          0 MSHR_MERGE:          0
cpu0->cpu0_L1I RFO          ACCESS:          0 HIT:          0 MISS:          0 MSHR_MERGE:          0
cpu0->cpu0_L1I PREFETCH     ACCESS:          0 HIT:          0 MISS:          0 MSHR_MERGE:          0
cpu0->cpu0_L1I WRITE        ACCESS:          0 HIT:          0 MISS:          0 MSHR_MERGE:          0
cpu0->cpu0_L1I TRANSLATION  ACCESS:          0 HIT:          0 MISS:          0 MSHR_MERGE:          0
cpu0->cpu0_L1I PREFETCH REQUESTED:          0 ISSUED:          0 USEFUL:          0 USELESS:          0
cpu0->cpu0_L1I AVERAGE MISS LATENCY: - cycles
cpu0->cpu0_L1D TOTAL        ACCESS:   15658567 HIT:   14161466 MISS:    1497101 MSHR_MERGE:     870021
cpu0->cpu0_L1D LOAD         ACCESS:   11021926 HIT:   10395915 MISS:     626011 MSHR_MERGE:     259931
cpu0->cpu0_L1D RFO          ACCESS:          0 HIT:          0 MISS:          0 MSHR_MERGE:          0
cpu0->cpu0_L1D PREFETCH     ACCESS:          0 HIT:          0 MISS:          0 MSHR_MERGE:          0
cpu0->cpu0_L1D WRITE        ACCESS:    4623968 HIT:    3763092 MISS:     860876 MSHR_MERGE:     610042
cpu0->cpu0_L1D TRANSLATION  ACCESS:      12673 HIT:       2459 MISS:      10214 MSHR_MERGE:         48
cpu0->cpu0_L1D PREFETCH REQUESTED:          0 ISSUED:          0 USEFUL:          0 USELESS:          0
cpu0->cpu0_L1D AVERAGE MISS LATENCY: 151.4 cycles
cpu0->cpu0_ITLB TOTAL        ACCESS:    7429282 HIT:    7429282 MISS:          0 MSHR_MERGE:          0
cpu0->cpu0_ITLB LOAD         ACCESS:    7429282 HIT:    7429282 MISS:          0 MSHR_MERGE:          0
cpu0->cpu0_ITLB RFO          ACCESS:          0 HIT:          0 MISS:          0 MSHR_MERGE:          0
cpu0->cpu0_ITLB PREFETCH     ACCESS:          0 HIT:          0 MISS:          0 MSHR_MERGE:          0
cpu0->cpu0_ITLB WRITE        ACCESS:          0 HIT:          0 MISS:          0 MSHR_MERGE:          0
cpu0->cpu0_ITLB TRANSLATION  ACCESS:          0 HIT:          0 MISS:          0 MSHR_MERGE:          0
cpu0->cpu0_ITLB PREFETCH REQUESTED:          0 ISSUED:          0 USEFUL:          0 USELESS:          0
cpu0->cpu0_ITLB AVERAGE MISS LATENCY: - cycles
cpu0->cpu0_DTLB TOTAL        ACCESS:   14813782 HIT:   14775385 MISS:      38397 MSHR_MERGE:      24104
cpu0->cpu0_DTLB LOAD         ACCESS:   14813782 HIT:   14775385 MISS:      38397 MSHR_MERGE:      24104
cpu0->cpu0_DTLB RFO          ACCESS:          0 HIT:          0 MISS:          0 MSHR_MERGE:          0
cpu0->cpu0_DTLB PREFETCH     ACCESS:          0 HIT:          0 MISS:          0 MSHR_MERGE:          0
cpu0->cpu0_DTLB WRITE        ACCESS:          0 HIT:          0 MISS:          0 MSHR_MERGE:          0
cpu0->cpu0_DTLB TRANSLATION  ACCESS:          0 HIT:          0 MISS:          0 MSHR_MERGE:          0
cpu0->cpu0_DTLB PREFETCH REQUESTED:          0 ISSUED:          0 USEFUL:          0 USELESS:          0
cpu0->cpu0_DTLB AVERAGE MISS LATENCY: 318.7 cycles
cpu0->LLC TOTAL        ACCESS:     773833 HIT:     431798 MISS:     342035 MSHR_MERGE:          0
cpu0->LLC LOAD         ACCESS:     262407 HIT:     119917 MISS:     142490 MSHR_MERGE:          0
cpu0->LLC RFO          ACCESS:     249924 HIT:      59479 MISS:     190445 MSHR_MERGE:          0
cpu0->LLC PREFETCH     ACCESS:          0 HIT:          0 MISS:          0 MSHR_MERGE:          0
cpu0->LLC WRITE        ACCESS:     252362 HIT:     252314 MISS:         48 MSHR_MERGE:          0
cpu0->LLC TRANSLATION  ACCESS:       9140 HIT:         88 MISS:       9052 MSHR_MERGE:          0
cpu0->LLC PREFETCH REQUESTED:          0 ISSUED:          0 USEFUL:          0 USELESS:          0
cpu0->LLC AVERAGE MISS LATENCY: 237.4 cycles

DRAM Statistics

Channel 0 RQ ROW_BUFFER_HIT:       1734
  ROW_BUFFER_MISS:     339485
  AVG DBUS CONGESTED CYCLE: 7.012
Channel 0 WQ ROW_BUFFER_HIT:      64149
  ROW_BUFFER_MISS:     150067
  FULL:          0
Channel 0 REFRESHES ISSUED:       3535
