[VMEM] WARNING: physical memory size is smaller than virtual memory size.

*** ChampSim Multicore Out-of-Order Simulator ***
Warmup Instructions: 10000000
Simulation Instructions: 50000000
Number of CPUs: 1
Page size: 4096

Off-chip DRAM Size: 16 GiB Channels: 1 Width: 64-bit Data Rate: 3205 MT/s
Heartbeat CPU 0 instructions: 10000003 cycles: 3488201 heartbeat IPC: 2.867 cumulative IPC: 2.867 (Simulation time: 00 hr 00 min 26 sec)
Warmup finished CPU 0 instructions: 10000003 cycles: 3488201 cumulative IPC: 2.867 (Simulation time: 00 hr 00 min 26 sec)
Warmup complete CPU 0 instructions: 10000003 cycles: 3488201 cumulative IPC: 2.867 (Simulation time: 00 hr 00 min 26 sec)
Heartbeat CPU 0 instructions: 20000004 cycles: 39839807 heartbeat IPC: 0.2751 cumulative IPC: 0.2751 (Simulation time: 00 hr 02 min 34 sec)
Heartbeat CPU 0 instructions: 30000004 cycles: 76201931 heartbeat IPC: 0.275 cumulative IPC: 0.2751 (Simulation time: 00 hr 04 min 42 sec)
Heartbeat CPU 0 instructions: 40000005 cycles: 112538111 heartbeat IPC: 0.2752 cumulative IPC: 0.2751 (Simulation time: 00 hr 06 min 57 sec)
Heartbeat CPU 0 instructions: 50000009 cycles: 148804089 heartbeat IPC: 0.2757 cumulative IPC: 0.2753 (Simulation time: 00 hr 09 min 13 sec)
Simulation finished CPU 0 instructions: 50000000 cycles: 181647580 cumulative IPC: 0.2753 (Simulation time: 00 hr 11 min 30 sec)
Simulation complete CPU 0 instructions: 50000000 cycles: 181647580 cumulative IPC: 0.2753 (Simulation time: 00 hr 11 min 30 sec)

ChampSim completed all CPUs

=== Simulation ===
CPU 0 runs traces/602.gcc_s-1850B.champsimtrace.xz

Region of Interest Statistics

CPU 0 cumulative IPC: 0.2753 instructions: 50000000 cycles: 181647580
CPU 0 Branch Prediction Accuracy: 96.46% MPKI: 9.085 Average ROB Occupancy at Mispredict: 55.29
Branch type MPKI
BRANCH_DIRECT_JUMP: 0.01114
BRANCH_INDIRECT: 0
BRANCH_CONDITIONAL: 9.074
BRANCH_DIRECT_CALL: 0
BRANCH_INDIRECT_CALL: 0
BRANCH_RETURN: 0

cpu0->cpu0_STLB TOTAL        ACCESS:      16363 HIT:       1144 MISS:      15219 MSHR_MERGE:          0
cpu0->cpu0_STLB LOAD         ACCESS:      16363 HIT:       1144 MISS:      15219 MSHR_MERGE:          0
cpu0->cpu0_STLB RFO          ACCESS:          0 HIT:          0 MISS:          0 MSHR_MERGE:          0
cpu0->cpu0_STLB PREFETCH     ACCESS:          0 HIT:          0 MISS:          0 MSHR_MERGE:          0
cpu0->cpu0_STLB WRITE        ACCESS:          0 HIT:          0 MISS:          0 MSHR_MERGE:          0
cpu0->cpu0_STLB TRANSLATION  ACCESS:          0 HIT:          0 MISS:          0 MSHR_MERGE:          0
cpu0->cpu0_STLB PREFETCH REQUESTED:          0 ISSUED:          0 USEFUL:          0 USELESS:          0
cpu0->cpu0_STLB AVERAGE MISS LATENCY: 684.6 cycles
cpu0->cpu0_L2C TOTAL        ACCESS:    1228892 HIT:     320563 MISS:     908329 MSHR_MERGE:          0
cpu0->cpu0_L2C LOAD         ACCESS:    1206573 HIT:     316835 MISS:     889738 MSHR_MERGE:          0
cpu0->cpu0_L2C RFO          ACCESS:        395 HIT:          0 MISS:        395 MSHR_MERGE:          0
cpu0->cpu0_L2C PREFETCH     ACCESS:          0 HIT:          0 MISS:          0 MSHR_MERGE:          0
cpu0->cpu0_L2C WRITE        ACCESS:       3138 HIT:       3138 MISS:          0 MSHR_MERGE:          0
cpu0->cpu0_L2C TRANSLATION  ACCESS:      18786 HIT:        590 MISS:      18196 MSHR_MERGE:          0
cpu0->cpu0_L2C PREFETCH REQUESTED:          0 ISSUED:          0 USEFUL:          0 USELESS:          0
cpu0->cpu0_L2C AVERAGE MISS LATENCY: 154.4 cycles
cpu0->cpu0_L1I TOTAL        ACCESS:    1730605 HIT:    1730605 MISS:          0 MSHR_MERGE:          0
cpu0->cpu0_L1I LOAD         ACCESS:    1730605 HIT:    1730605 MISS:          0 MSHR_MERGE:          0
cpu0->cpu0_L1I RFO          ACCESS:          0 HIT:          0 MISS:          0 MSHR_MERGE:          0
cpu0->cpu0_L1I PREFETCH     ACCESS:          0 HIT:          0 MISS:          0 MSHR_MERGE:          0
cpu0->cpu0_L1I WRITE        ACCESS:          0 HIT:          0 MISS:          0 MSHR_MERGE:          0
cpu0->cpu0_L1I TRANSLATION  ACCESS:          0 HIT:          0 MISS:          0 MSHR_MERGE:          0
cpu0->cpu0_L1I PREFETCH REQUESTED:          0 ISSUED:          0 USEFUL:          0 USELESS:          0
cpu0->cpu0_L1I AVERAGE MISS LATENCY: - cycles
cpu0->cpu0_L1D TOTAL        ACCESS:   13428474 HIT:   11102140 MISS:    2326334 MSHR_MERGE:    1100580
cpu0->cpu0_L1D LOAD         ACCESS:    9082302 HIT:    6775153 MISS:    2307149 MSHR_MERGE:    1100576
cpu0->cpu0_L1D RFO          ACCESS:          0 HIT:          0 MISS:          0 MSHR_MERGE:          0
cpu0->cpu0_L1D PREFETCH     ACCESS:          0 HIT:          0 MISS:          0 MSHR_MERGE:          0
cpu0->cpu0_L1D WRITE        ACCESS:    4315581 HIT:    4315185 MISS:        396 MSHR_MERGE:          1
cpu0->cpu0_L1D TRANSLATION  ACCESS:      30591 HIT:      11802 MISS:      18789 MSHR_MERGE:          3
cpu0->cpu0_L1D PREFETCH REQUESTED:          0 ISSUED:          0 USEFUL:          0 USELESS:          0
cpu0->cpu0_L1D AVERAGE MISS LATENCY: 123.1 cycles
cpu0->cpu0_ITLB TOTAL        ACCESS:    1449738 HIT:    1449738 MISS:          0 MSHR_MERGE:          0
cpu0->cpu0_ITLB LOAD         ACCESS:    1449738 HIT:    1449738 MISS:          0 MSHR_MERGE:          0
cpu0->cpu0_ITLB RFO          ACCESS:          0 HIT:          0 MISS:          0 MSHR_MERGE:          0
cpu0->cpu0_ITLB PREFETCH     ACCESS:          0 HIT:          0 MISS:          0 MSHR_MERGE:          0
cpu0->cpu0_ITLB WRITE        ACCESS:          0 HIT:          0 MISS:          0 MSHR_MERGE:          0
cpu0->cpu0_ITLB TRANSLATION  ACCESS:          0 HIT:          0 MISS:          0 MSHR_MERGE:          0
cpu0->cpu0_ITLB PREFETCH REQUESTED:          0 ISSUED:          0 USEFUL:          0 USELESS:          0
cpu0->cpu0_ITLB AVERAGE MISS LATENCY: - cycles
cpu0->cpu0_DTLB TOTAL        ACCESS:   12387772 HIT:   12353724 MISS:      34048 MSHR_MERGE:      17685
cpu0->cpu0_DTLB LOAD         ACCESS:   12387772 HIT:   12353724 MISS:      34048 MSHR_MERGE:      17685
cpu0->cpu0_DTLB RFO          ACCESS:          0 HIT:          0 MISS:          0 MSHR_MERGE:          0
cpu0->cpu0_DTLB PREFETCH     ACCESS:          0 HIT:          0 MISS:          0 MSHR_MERGE:          0
cpu0->cpu0_DTLB WRITE        ACCESS:          0 HIT:          0 MISS:          0 MSHR_MERGE:          0
cpu0->cpu0_DTLB TRANSLATION  ACCESS:          0 HIT:          0 MISS:          0 MSHR_MERGE:          0
cpu0->cpu0_DTLB PREFETCH REQUESTED:          0 ISSUED:          0 USEFUL:          0 USELESS:          0
cpu0->cpu0_DTLB AVERAGE MISS LATENCY: 642.7 cycles
cpu0->LLC TOTAL        ACCESS:     909591 HIT:       2614 MISS:     906977 MSHR_MERGE:          0
cpu0->LLC LOAD         ACCESS:     889738 HIT:       1262 MISS:     888476 MSHR_MERGE:          0
cpu0->LLC RFO          ACCESS:        395 HIT:          0 MISS:        395 MSHR_MERGE:          0
cpu0->LLC PREFETCH     ACCESS:          0 HIT:          0 MISS:          0 MSHR_MERGE:          0
cpu0->LLC WRITE        ACCESS:       1262 HIT:       1261 MISS:          1 MSHR_MERGE:          0
cpu0->LLC TRANSLATION  ACCESS:      18196 HIT:         91 MISS:      18105 MSHR_MERGE:          0
cpu0->LLC PREFETCH REQUESTED:          0 ISSUED:          0 USEFUL:          0 USELESS:          0
cpu0->LLC AVERAGE MISS LATENCY: 138.6 cycles

DRAM Statistics

Channel 0 RQ ROW_BUFFER_HIT:     284684
  ROW_BUFFER_MISS:     622292
  AVG DBUS CONGESTED CYCLE: 24.07
Channel 0 WQ ROW_BUFFER_HIT:        387
  ROW_BUFFER_MISS:        874
  FULL:          0
Channel 0 REFRESHES ISSUED:      15137
