[VMEM] WARNING: physical memory size is smaller than virtual memory size.

*** ChampSim Multicore Out-of-Order Simulator ***
Warmup Instructions: 10000000
Simulation Instructions: 50000000
Number of CPUs: 1
Page size: 4096

Off-chip DRAM Size: 16 GiB Channels: 1 Width: 64-bit Data Rate: 3205 MT/s
Heartbeat CPU 0 instructions: 10000001 cycles: 2524987 heartbeat IPC: 3.96 cumulative IPC: 3.96 (Simulation time: 00 hr 00 min 22 sec)
Warmup finished CPU 0 instructions: 10000001 cycles: 2524987 cumulative IPC: 3.96 (Simulation time: 00 hr 00 min 22 sec)
Warmup complete CPU 0 instructions: 10000001 cycles: 2524987 cumulative IPC: 3.96 (Simulation time: 00 hr 00 min 22 sec)
Heartbeat CPU 0 instructions: 20000001 cycles: 8214570 heartbeat IPC: 1.758 cumulative IPC: 1.758 (Simulation time: 00 hr 00 min 49 sec)
Heartbeat CPU 0 instructions: 30000005 cycles: 13643357 heartbeat IPC: 1.842 cumulative IPC: 1.799 (Simulation time: 00 hr 01 min 15 sec)
Heartbeat CPU 0 instructions: 40000006 cycles: 19134199 heartbeat IPC: 1.821 cumulative IPC: 1.806 (Simulation time: 00 hr 01 min 41 sec)
Heartbeat CPU 0 instructions: 50000006 cycles: 24572471 heartbeat IPC: 1.839 cumulative IPC: 1.814 (Simulation time: 00 hr 02 min 07 sec)
Simulation finished CPU 0 instructions: 50000003 cycles: 27595088 cumulative IPC: 1.812 (Simulation time: 00 hr 02 min 33 sec)
Simulation complete CPU 0 instructions: 50000003 cycles: 27595088 cumulative IPC: 1.812 (Simulation time: 00 hr 02 min 33 sec)

ChampSim completed all CPUs

=== Simulation ===
CPU 0 runs traces/648.exchange2_s-387B.champsimtrace.xz

Region of Interest Statistics

CPU 0 cumulative IPC: 1.812 instructions: 50000003 cycles: 27595088
CPU 0 Branch Prediction Accuracy: 94.16% MPKI: 9.835 Average ROB Occupancy at Mispredict: 41.27
Branch type MPKI
BRANCH_DIRECT_JUMP: 0.5307
BRANCH_INDIRECT: 0
BRANCH_CONDITIONAL: 9.301
BRANCH_DIRECT_CALL: 0.00166
BRANCH_INDIRECT_CALL: 0
BRANCH_RETURN: 0.00166

cpu0->cpu0_STLB TOTAL        ACCESS:         37 HIT:          0 MISS:         37 MSHR_MERGE:          0
cpu0->cpu0_STLB LOAD         ACCESS:         37 HIT:          0 MISS:         37 MSHR_MERGE:          0
cpu0->cpu0_STLB RFO          ACCESS:          0 HIT:          0 MISS:          0 MSHR_MERGE:          0
cpu0->cpu0_STLB PREFETCH     ACCESS:          0 HIT:          0 MISS:          0 MSHR_MERGE:          0
cpu0->cpu0_STLB WRITE        ACCESS:          0 HIT:          0 MISS:          0 MSHR_MERGE:          0
cpu0->cpu0_STLB TRANSLATION  ACCESS:          0 HIT:          0 MISS:          0 MSHR_MERGE:          0
cpu0->cpu0_STLB PREFETCH REQUESTED:          0 ISSUED:          0 USEFUL:          0 USELESS:          0
cpu0->cpu0_STLB AVERAGE MISS LATENCY: 724.8 cycles
cpu0->cpu0_L2C TOTAL        ACCESS:      22994 HIT:      21836 MISS:       1158 MSHR_MERGE:          0
cpu0->cpu0_L2C LOAD         ACCESS:      22851 HIT:      21820 MISS:       1031 MSHR_MERGE:          0
cpu0->cpu0_L2C RFO          ACCESS:         78 HIT:          8 MISS:         70 MSHR_MERGE:          0
cpu0->cpu0_L2C PREFETCH     ACCESS:          0 HIT:          0 MISS:          0 MSHR_MERGE:          0
cpu0->cpu0_L2C WRITE        ACCESS:          8 HIT:          8 MISS:          0 MSHR_MERGE:          0
cpu0->cpu0_L2C TRANSLATION  ACCESS:         57 HIT:          0 MISS:         57 MSHR_MERGE:          0
cpu0->cpu0_L2C PREFETCH REQUESTED:          0 ISSUED:          0 USEFUL:          0 USELESS:          0
cpu0->cpu0_L2C AVERAGE MISS LATENCY: 185 cycles
cpu0->cpu0_L1I TOTAL        ACCESS:    1470112 HIT:    1431900 MISS:      38212 MSHR_MERGE:      15405
cpu0->cpu0_L1I LOAD         ACCESS:    1470112 HIT:    1431900 MISS:      38212 MSHR_MERGE:      15405
cpu0->cpu0_L1I RFO          ACCESS:          0 HIT:          0 MISS:          0 MSHR_MERGE:          0
cpu0->cpu0_L1I PREFETCH     ACCESS:          0 HIT:          0 MISS:          0 MSHR_MERGE:          0
cpu0->cpu0_L1I WRITE        ACCESS:          0 HIT:          0 MISS:          0 MSHR_MERGE:          0
cpu0->cpu0_L1I TRANSLATION  ACCESS:          0 HIT:          0 MISS:          0 MSHR_MERGE:          0
cpu0->cpu0_L1I PREFETCH REQUESTED:          0 ISSUED:          0 USEFUL:          0 USELESS:          0
cpu0->cpu0_L1I AVERAGE MISS LATENCY: 15.03 cycles
cpu0->cpu0_L1D TOTAL        ACCESS:   13263265 HIT:   13262397 MISS:        868 MSHR_MERGE:        689
cpu0->cpu0_L1D LOAD         ACCESS:    7417074 HIT:    7416992 MISS:         82 MSHR_MERGE:         38
cpu0->cpu0_L1D RFO          ACCESS:          0 HIT:          0 MISS:          0 MSHR_MERGE:          0
cpu0->cpu0_L1D PREFETCH     ACCESS:          0 HIT:          0 MISS:          0 MSHR_MERGE:          0
cpu0->cpu0_L1D WRITE        ACCESS:    5846116 HIT:    5845387 MISS:        729 MSHR_MERGE:        651
cpu0->cpu0_L1D TRANSLATION  ACCESS:         75 HIT:         18 MISS:         57 MSHR_MERGE:          0
cpu0->cpu0_L1D PREFETCH REQUESTED:          0 ISSUED:          0 USEFUL:          0 USELESS:          0
cpu0->cpu0_L1D AVERAGE MISS LATENCY: 191.6 cycles
cpu0->cpu0_ITLB TOTAL        ACCESS:    1160790 HIT:    1160733 MISS:         57 MSHR_MERGE:         33
cpu0->cpu0_ITLB LOAD         ACCESS:    1160790 HIT:    1160733 MISS:         57 MSHR_MERGE:         33
cpu0->cpu0_ITLB RFO          ACCESS:          0 HIT:          0 MISS:          0 MSHR_MERGE:          0
cpu0->cpu0_ITLB PREFETCH     ACCESS:          0 HIT:          0 MISS:          0 MSHR_MERGE:          0
cpu0->cpu0_ITLB WRITE        ACCESS:          0 HIT:          0 MISS:          0 MSHR_MERGE:          0
cpu0->cpu0_ITLB TRANSLATION  ACCESS:          0 HIT:          0 MISS:          0 MSHR_MERGE:          0
cpu0->cpu0_ITLB PREFETCH REQUESTED:          0 ISSUED:          0 USEFUL:          0 USELESS:          0
cpu0->cpu0_ITLB AVERAGE MISS LATENCY: 718 cycles
cpu0->cpu0_DTLB TOTAL        ACCESS:   12184688 HIT:   12184644 MISS:         44 MSHR_MERGE:         31
cpu0->cpu0_DTLB LOAD         ACCESS:   12184688 HIT:   12184644 MISS:         44 MSHR_MERGE:         31
cpu0->cpu0_DTLB RFO          ACCESS:          0 HIT:          0 MISS:          0 MSHR_MERGE:          0
cpu0->cpu0_DTLB PREFETCH     ACCESS:          0 HIT:          0 MISS:          0 MSHR_MERGE:          0
cpu0->cpu0_DTLB WRITE        ACCESS:          0 HIT:          0 MISS:          0 MSHR_MERGE:          0
cpu0->cpu0_DTLB TRANSLATION  ACCESS:          0 HIT:          0 MISS:          0 MSHR_MERGE:          0
cpu0->cpu0_DTLB PREFETCH REQUESTED:          0 ISSUED:          0 USEFUL:          0 USELESS:          0
cpu0->cpu0_DTLB AVERAGE MISS LATENCY: 754.3 cycles
cpu0->LLC TOTAL        ACCESS:       1158 HIT:          0 MISS:       1158 MSHR_MERGE:          0
cpu0->LLC LOAD         ACCESS:       1031 HIT:          0 MISS:       1031 MSHR_MERGE:          0
cpu0->LLC RFO          ACCESS:         70 HIT:          0 MISS:         70 MSHR_MERGE:          0
cpu0->LLC PREFETCH     ACCESS:          0 HIT:          0 MISS:          0 MSHR_MERGE:          0
cpu0->LLC WRITE        ACCESS:          0 HIT:          0 MISS:          0 MSHR_MERGE:          0
cpu0->LLC TRANSLATION  ACCESS:         57 HIT:          0 MISS:         57 MSHR_MERGE:          0
cpu0->LLC PREFETCH REQUESTED:          0 ISSUED:          0 USEFUL:          0 USELESS:          0
cpu0->LLC AVERAGE MISS LATENCY: 169 cycles

DRAM Statistics

Channel 0 RQ ROW_BUFFER_HIT:         50
  ROW_BUFFER_MISS:       1108
  AVG DBUS CONGESTED CYCLE: 2.967
Channel 0 WQ ROW_BUFFER_HIT:          0
  ROW_BUFFER_MISS:          0
  FULL:          0
Channel 0 REFRESHES ISSUED:       2300
