[VMEM] WARNING: physical memory size is smaller than virtual memory size.

*** ChampSim Multicore Out-of-Order Simulator ***
Warmup Instructions: 10000000
Simulation Instructions: 50000000
Number of CPUs: 1
Page size: 4096

Off-chip DRAM Size: 16 GiB Channels: 1 Width: 64-bit Data Rate: 3205 MT/s
Heartbeat CPU 0 instructions: 10000001 cycles: 2804500 heartbeat IPC: 3.566 cumulative IPC: 3.566 (Simulation time: 00 hr 00 min 26 sec)
Warmup finished CPU 0 instructions: 10000001 cycles: 2804500 cumulative IPC: 3.566 (Simulation time: 00 hr 00 min 26 sec)
Warmup complete CPU 0 instructions: 10000001 cycles: 2804500 cumulative IPC: 3.566 (Simulation time: 00 hr 00 min 26 sec)
Heartbeat CPU 0 instructions: 20000001 cycles: 13995910 heartbeat IPC: 0.8935 cumulative IPC: 0.8935 (Simulation time: 00 hr 01 min 32 sec)
Heartbeat CPU 0 instructions: 30000005 cycles: 25305926 heartbeat IPC: 0.8842 cumulative IPC: 0.8888 (Simulation time: 00 hr 02 min 38 sec)
Heartbeat CPU 0 instructions: 40000008 cycles: 36561367 heartbeat IPC: 0.8885 cumulative IPC: 0.8887 (Simulation time: 00 hr 03 min 44 sec)
Heartbeat CPU 0 instructions: 50000009 cycles: 47747825 heartbeat IPC: 0.8939 cumulative IPC: 0.89 (Simulation time: 00 hr 04 min 51 sec)
Simulation finished CPU 0 instructions: 50000004 cycles: 56217685 cumulative IPC: 0.8894 (Simulation time: 00 hr 05 min 57 sec)
Simulation complete CPU 0 instructions: 50000004 cycles: 56217685 cumulative IPC: 0.8894 (Simulation time: 00 hr 05 min 57 sec)

ChampSim completed all CPUs

=== Simulation ===
CPU 0 runs traces/603.bwaves_s-2931B.champsimtrace.xz

Region of Interest Statistics

CPU 0 cumulative IPC: 0.8894 instructions: 50000004 cycles: 56217685
CPU 0 Branch Prediction Accuracy: 96.74% MPKI: 0.275 Average ROB Occupancy at Mispredict: 348.6
Branch type MPKI
BRANCH_DIRECT_JUMP: 0
BRANCH_INDIRECT: 0
BRANCH_CONDITIONAL: 0.275
BRANCH_DIRECT_CALL: 0
BRANCH_INDIRECT_CALL: 0
BRANCH_RETURN: 0

cpu0->cpu0_STLB TOTAL        ACCESS:      92399 HIT:      81755 MISS:      10644 MSHR_MERGE:          0
cpu0->cpu0_STLB LOAD         ACCESS:      92399 HIT:      81755 MISS:      10644 MSHR_MERGE:          0
cpu0->cpu0_STLB RFO          ACCESS:          0 HIT:          0 MISS:          0 MSHR_MERGE:          0
cpu0->cpu0_STLB PREFETCH     ACCESS:          0 HIT:          0 MISS:          0 MSHR_MERGE:          0
cpu0->cpu0_STLB WRITE        ACCESS:          0 HIT:          0 MISS:          0 MSHR_MERGE:          0
cpu0->cpu0_STLB TRANSLATION  ACCESS:          0 HIT:          0 MISS:          0 MSHR_MERGE:          0
cpu0->cpu0_STLB PREFETCH REQUESTED:          0 ISSUED:          0 USEFUL:          0 USELESS:          0
cpu0->cpu0_STLB AVERAGE MISS LATENCY: 698.5 cycles
cpu0->cpu0_L2C TOTAL        ACCESS:    1176068 HIT:     430137 MISS:     745931 MSHR_MERGE:          0
cpu0->cpu0_L2C LOAD         ACCESS:     518852 HIT:      82920 MISS:     435932 MSHR_MERGE:          0
cpu0->cpu0_L2C RFO          ACCESS:     316101 HIT:      18405 MISS:     297696 MSHR_MERGE:          0
cpu0->cpu0_L2C PREFETCH     ACCESS:          0 HIT:          0 MISS:          0 MSHR_MERGE:          0
cpu0->cpu0_L2C WRITE        ACCESS:     319874 HIT:     319840 MISS:         34 MSHR_MERGE:          0
cpu0->cpu0_L2C TRANSLATION  ACCESS:      21241 HIT:       8972 MISS:      12269 MSHR_MERGE:          0
cpu0->cpu0_L2C PREFETCH REQUESTED:          0 ISSUED:          0 USEFUL:          0 USELESS:          0
cpu0->cpu0_L2C AVERAGE MISS LATENCY: 224 cycles
cpu0->cpu0_L1I TOTAL        ACCESS:    9098114 HIT:    9098106 MISS:          8 MSHR_MERGE:          1
cpu0->cpu0_L1I LOAD         ACCESS:    9098114 HIT:    9098106 MISS:          8 MSHR_MERGE:          1
cpu0->cpu0_L1I RFO          ACCESS:          0 HIT:          0 MISS:          0 MSHR_MERGE:          0
cpu0->cpu0_L1I PREFETCH     ACCESS:          0 HIT:          0 MISS:          0 MSHR_MERGE:          0
cpu0->cpu0_L1I WRITE        ACCESS:          0 HIT:          0 MISS:          0 MSHR_MERGE:          0
cpu0->cpu0_L1I TRANSLATION  ACCESS:          0 HIT:          0 MISS:          0 MSHR_MERGE:          0
cpu0->cpu0_L1I PREFETCH REQUESTED:          0 ISSUED:          0 USEFUL:          0 USELESS:          0
cpu0->cpu0_L1I AVERAGE MISS LATENCY: 225.9 cycles
cpu0->cpu0_L1D TOTAL        ACCESS:   16608181 HIT:   14974627 MISS:    1633554 MSHR_MERGE:     777109
cpu0->cpu0_L1D LOAD         ACCESS:    7440567 HIT:    6916868 MISS:     523699 MSHR_MERGE:       4850
cpu0->cpu0_L1D RFO          ACCESS:          0 HIT:          0 MISS:          0 MSHR_MERGE:          0
cpu0->cpu0_L1D PREFETCH     ACCESS:          0 HIT:          0 MISS:          0 MSHR_MERGE:          0
cpu0->cpu0_L1D WRITE        ACCESS:    9146299 HIT:    8057688 MISS:    1088611 MSHR_MERGE:     772256
cpu0->cpu0_L1D TRANSLATION  ACCESS:      21315 HIT:         71 MISS:      21244 MSHR_MERGE:          3
cpu0->cpu0_L1D PREFETCH REQUESTED:          0 ISSUED:          0 USEFUL:          0 USELESS:          0
cpu0->cpu0_L1D AVERAGE MISS LATENCY: 204.1 cycles
cpu0->cpu0_ITLB TOTAL        ACCESS:    7191017 HIT:    7191017 MISS:          0 MSHR_MERGE:          0
cpu0->cpu0_ITLB LOAD         ACCESS:    7191017 HIT:    7191017 MISS:          0 MSHR_MERGE:          0
cpu0->cpu0_ITLB RFO          ACCESS:          0 HIT:          0 MISS:          0 MSHR_MERGE:          0
cpu0->cpu0_ITLB PREFETCH     ACCESS:          0 HIT:          0 MISS:          0 MSHR_MERGE:          0
cpu0->cpu0_ITLB WRITE        ACCESS:          0 HIT:          0 MISS:          0 MSHR_MERGE:          0
cpu0->cpu0_ITLB TRANSLATION  ACCESS:          0 HIT:          0 MISS:          0 MSHR_MERGE:          0
cpu0->cpu0_ITLB PREFETCH REQUESTED:          0 ISSUED:          0 USEFUL:          0 USELESS:          0
cpu0->cpu0_ITLB AVERAGE MISS LATENCY: - cycles
cpu0->cpu0_DTLB TOTAL        ACCESS:   15297621 HIT:   15194745 MISS:     102876 MSHR_MERGE:      10477
cpu0->cpu0_DTLB LOAD         ACCESS:   15297621 HIT:   15194745 MISS:     102876 MSHR_MERGE:      10477
cpu0->cpu0_DTLB RFO          ACCESS:          0 HIT:          0 MISS:          0 MSHR_MERGE:          0
cpu0->cpu0_DTLB PREFETCH     ACCESS:          0 HIT:          0 MISS:          0 MSHR_MERGE:          0
cpu0->cpu0_DTLB WRITE        ACCESS:          0 HIT:          0 MISS:          0 MSHR_MERGE:          0
cpu0->cpu0_DTLB TRANSLATION  ACCESS:          0 HIT:          0 MISS:          0 MSHR_MERGE:          0
cpu0->cpu0_DTLB PREFETCH REQUESTED:          0 ISSUED:          0 USEFUL:          0 USELESS:          0
cpu0->cpu0_DTLB AVERAGE MISS LATENCY: 85.59 cycles
cpu0->LLC TOTAL        ACCESS:    1043645 HIT:     349783 MISS:     693862 MSHR_MERGE:          0
cpu0->LLC LOAD         ACCESS:     435932 HIT:      52058 MISS:     383874 MSHR_MERGE:          0
cpu0->LLC RFO          ACCESS:     297696 HIT:          0 MISS:     297696 MSHR_MERGE:          0
cpu0->LLC PREFETCH     ACCESS:          0 HIT:          0 MISS:          0 MSHR_MERGE:          0
cpu0->LLC WRITE        ACCESS:     297748 HIT:     297725 MISS:         23 MSHR_MERGE:          0
cpu0->LLC TRANSLATION  ACCESS:      12269 HIT:          0 MISS:      12269 MSHR_MERGE:          0
cpu0->LLC PREFETCH REQUESTED:          0 ISSUED:          0 USEFUL:          0 USELESS:          0
cpu0->LLC AVERAGE MISS LATENCY: 223.7 cycles

DRAM Statistics

Channel 0 RQ ROW_BUFFER_HIT:         16
  ROW_BUFFER_MISS:     693821
  AVG DBUS CONGESTED CYCLE: 11.21
Channel 0 WQ ROW_BUFFER_HIT:     106303
  ROW_BUFFER_MISS:     191697
  FULL:          0
Channel 0 REFRESHES ISSUED:       4685
