[VMEM] WARNING: physical memory size is smaller than virtual memory size.

*** ChampSim Multicore Out-of-Order Simulator ***
Warmup Instructions: 10000000
Simulation Instructions: 50000000
Number of CPUs: 1
Page size: 4096

Off-chip DRAM Size: 16 GiB Channels: 1 Width: 64-bit Data Rate: 3205 MT/s
Heartbeat CPU 0 instructions: 10000000 cycles: 2534693 heartbeat IPC: 3.945 cumulative IPC: 3.945 (Simulation time: 00 hr 00 min 17 sec)
Warmup finished CPU 0 instructions: 10000000 cycles: 2534693 cumulative IPC: 3.945 (Simulation time: 00 hr 00 min 17 sec)
Warmup complete CPU 0 instructions: 10000000 cycles: 2534693 cumulative IPC: 3.945 (Simulation time: 00 hr 00 min 17 sec)
Heartbeat CPU 0 instructions: 20000002 cycles: 10380396 heartbeat IPC: 1.275 cumulative IPC: 1.275 (Simulation time: 00 hr 00 min 48 sec)
Heartbeat CPU 0 instructions: 30000002 cycles: 18418146 heartbeat IPC: 1.244 cumulative IPC: 1.259 (Simulation time: 00 hr 01 min 20 sec)
Heartbeat CPU 0 instructions: 40000004 cycles: 26427185 heartbeat IPC: 1.249 cumulative IPC: 1.256 (Simulation time: 00 hr 01 min 52 sec)
Heartbeat CPU 0 instructions: 50000004 cycles: 34383767 heartbeat IPC: 1.257 cumulative IPC: 1.256 (Simulation time: 00 hr 02 min 23 sec)
Simulation finished CPU 0 instructions: 50000001 cycles: 39969335 cumulative IPC: 1.251 (Simulation time: 00 hr 02 min 55 sec)
Simulation complete CPU 0 instructions: 50000001 cycles: 39969335 cumulative IPC: 1.251 (Simulation time: 00 hr 02 min 55 sec)

ChampSim completed all CPUs

=== Simulation ===
CPU 0 runs traces/657.xz_s-4994B.champsimtrace.xz

Region of Interest Statistics

CPU 0 cumulative IPC: 1.251 instructions: 50000001 cycles: 39969335
CPU 0 Branch Prediction Accuracy: 82% MPKI: 18.87 Average ROB Occupancy at Mispredict: 23.25
Branch type MPKI
BRANCH_DIRECT_JUMP: 0.00012
BRANCH_INDIRECT: 0.00102
BRANCH_CONDITIONAL: 18.86
BRANCH_DIRECT_CALL: 0
BRANCH_INDIRECT_CALL: 0
BRANCH_RETURN: 2e-05

cpu0->cpu0_STLB TOTAL        ACCESS:        308 HIT:        153 MISS:        155 MSHR_MERGE:          0
cpu0->cpu0_STLB LOAD         ACCESS:        308 HIT:        153 MISS:        155 MSHR_MERGE:          0
cpu0->cpu0_STLB RFO          ACCESS:          0 HIT:          0 MISS:          0 MSHR_MERGE:          0
cpu0->cpu0_STLB PREFETCH     ACCESS:          0 HIT:          0 MISS:          0 MSHR_MERGE:          0
cpu0->cpu0_STLB WRITE        ACCESS:          0 HIT:          0 MISS:          0 MSHR_MERGE:          0
cpu0->cpu0_STLB TRANSLATION  ACCESS:          0 HIT:          0 MISS:          0 MSHR_MERGE:          0
cpu0->cpu0_STLB PREFETCH REQUESTED:          0 ISSUED:          0 USEFUL:          0 USELESS:          0
cpu0->cpu0_STLB AVERAGE MISS LATENCY: 687.6 cycles
cpu0->cpu0_L2C TOTAL        ACCESS:      31363 HIT:      21983 MISS:       9380 MSHR_MERGE:          0
cpu0->cpu0_L2C LOAD         ACCESS:       9181 HIT:       6563 MISS:       2618 MSHR_MERGE:          0
cpu0->cpu0_L2C RFO          ACCESS:       9493 HIT:       2982 MISS:       6511 MSHR_MERGE:          0
cpu0->cpu0_L2C PREFETCH     ACCESS:          0 HIT:          0 MISS:          0 MSHR_MERGE:          0
cpu0->cpu0_L2C WRITE        ACCESS:      12437 HIT:      12380 MISS:         57 MSHR_MERGE:          0
cpu0->cpu0_L2C TRANSLATION  ACCESS:        252 HIT:         58 MISS:        194 MSHR_MERGE:          0
cpu0->cpu0_L2C PREFETCH REQUESTED:          0 ISSUED:          0 USEFUL:          0 USELESS:          0
cpu0->cpu0_L2C AVERAGE MISS LATENCY: 154.8 cycles
cpu0->cpu0_L1I TOTAL        ACCESS:    1183008 HIT:    1183002 MISS:          6 MSHR_MERGE:          0
cpu0->cpu0_L1I LOAD         ACCESS:    1183008 HIT:    1183002 MISS:          6 MSHR_MERGE:          0
cpu0->cpu0_L1I RFO          ACCESS:          0 HIT:          0 MISS:          0 MSHR_MERGE:          0
cpu0->cpu0_L1I PREFETCH     ACCESS:          0 HIT:          0 MISS:          0 MSHR_MERGE:          0
cpu0->cpu0_L1I WRITE        ACCESS:          0 HIT:          0 MISS:          0 MSHR_MERGE:          0
cpu0->cpu0_L1I TRANSLATION  ACCESS:          0 HIT:          0 MISS:          0 MSHR_MERGE:          0
cpu0->cpu0_L1I PREFETCH REQUESTED:          0 ISSUED:          0 USEFUL:          0 USELESS:          0
cpu0->cpu0_L1I AVERAGE MISS LATENCY: 176.2 cycles
cpu0->cpu0_L1D TOTAL        ACCESS:    8304463 HIT:    8238977 MISS:      65486 MSHR_MERGE:      46566
cpu0->cpu0_L1D LOAD         ACCESS:    5179820 HIT:    5167328 MISS:      12492 MSHR_MERGE:       3317
cpu0->cpu0_L1D RFO          ACCESS:          0 HIT:          0 MISS:          0 MSHR_MERGE:          0
cpu0->cpu0_L1D PREFETCH     ACCESS:          0 HIT:          0 MISS:          0 MSHR_MERGE:          0
cpu0->cpu0_L1D WRITE        ACCESS:    3124333 HIT:    3071591 MISS:      52742 MSHR_MERGE:      43249
cpu0->cpu0_L1D TRANSLATION  ACCESS:        310 HIT:         58 MISS:        252 MSHR_MERGE:          0
cpu0->cpu0_L1D PREFETCH REQUESTED:          0 ISSUED:          0 USEFUL:          0 USELESS:          0
cpu0->cpu0_L1D AVERAGE MISS LATENCY: 85.19 cycles
cpu0->cpu0_ITLB TOTAL        ACCESS:    1062058 HIT:    1062058 MISS:          0 MSHR_MERGE:          0
cpu0->cpu0_ITLB LOAD         ACCESS:    1062058 HIT:    1062058 MISS:          0 MSHR_MERGE:          0
cpu0->cpu0_ITLB RFO          ACCESS:          0 HIT:          0 MISS:          0 MSHR_MERGE:          0
cpu0->cpu0_ITLB PREFETCH     ACCESS:          0 HIT:          0 MISS:          0 MSHR_MERGE:          0
cpu0->cpu0_ITLB WRITE        ACCESS:          0 HIT:          0 MISS:          0 MSHR_MERGE:          0
cpu0->cpu0_ITLB TRANSLATION  ACCESS:          0 HIT:          0 MISS:          0 MSHR_MERGE:          0
cpu0->cpu0_ITLB PREFETCH REQUESTED:          0 ISSUED:          0 USEFUL:          0 USELESS:          0
cpu0->cpu0_ITLB AVERAGE MISS LATENCY: - cycles
cpu0->cpu0_DTLB TOTAL        ACCESS:    7972470 HIT:    7971374 MISS:       1096 MSHR_MERGE:        788
cpu0->cpu0_DTLB LOAD         ACCESS:    7972470 HIT:    7971374 MISS:       1096 MSHR_MERGE:        788
cpu0->cpu0_DTLB RFO          ACCESS:          0 HIT:          0 MISS:          0 MSHR_MERGE:          0
cpu0->cpu0_DTLB PREFETCH     ACCESS:          0 HIT:          0 MISS:          0 MSHR_MERGE:          0
cpu0->cpu0_DTLB WRITE        ACCESS:          0 HIT:          0 MISS:          0 MSHR_MERGE:          0
cpu0->cpu0_DTLB TRANSLATION  ACCESS:          0 HIT:          0 MISS:          0 MSHR_MERGE:          0
cpu0->cpu0_DTLB PREFETCH REQUESTED:          0 ISSUED:          0 USEFUL:          0 USELESS:          0
cpu0->cpu0_DTLB AVERAGE MISS LATENCY: 351.6 cycles
cpu0->LLC TOTAL        ACCESS:      11565 HIT:       2306 MISS:       9259 MSHR_MERGE:          0
cpu0->LLC LOAD         ACCESS:       2618 HIT:         64 MISS:       2554 MSHR_MERGE:          0
cpu0->LLC RFO          ACCESS:       6511 HIT:          0 MISS:       6511 MSHR_MERGE:          0
cpu0->LLC PREFETCH     ACCESS:          0 HIT:          0 MISS:          0 MSHR_MERGE:          0
cpu0->LLC WRITE        ACCESS:       2242 HIT:       2242 MISS:          0 MSHR_MERGE:          0
cpu0->LLC TRANSLATION  ACCESS:        194 HIT:          0 MISS:        194 MSHR_MERGE:          0
cpu0->LLC PREFETCH REQUESTED:          0 ISSUED:          0 USEFUL:          0 USELESS:          0
cpu0->LLC AVERAGE MISS LATENCY: 140.7 cycles

DRAM Statistics

Channel 0 RQ ROW_BUFFER_HIT:       2434
  ROW_BUFFER_MISS:       6825
  AVG DBUS CONGESTED CYCLE: 2.588
Channel 0 WQ ROW_BUFFER_HIT:          0
  ROW_BUFFER_MISS:          0
  FULL:          0
Channel 0 REFRESHES ISSUED:       3331
