[VMEM] WARNING: physical memory size is smaller than virtual memory size.

*** ChampSim Multicore Out-of-Order Simulator ***
Warmup Instructions: 10000000
Simulation Instructions: 50000000
Number of CPUs: 1
Page size: 4096

Off-chip DRAM Size: 16 GiB Channels: 1 Width: 64-bit Data Rate: 3205 MT/s
Heartbeat CPU 0 instructions: 10000002 cycles: 6366274 heartbeat IPC: 1.571 cumulative IPC: 1.571 (Simulation time: 00 hr 00 min 47 sec)
Warmup finished CPU 0 instructions: 10000002 cycles: 6366274 cumulative IPC: 1.571 (Simulation time: 00 hr 00 min 47 sec)
Warmup complete CPU 0 instructions: 10000002 cycles: 6366274 cumulative IPC: 1.571 (Simulation time: 00 hr 00 min 47 sec)
Heartbeat CPU 0 instructions: 20000002 cycles: 46338717 heartbeat IPC: 0.2502 cumulative IPC: 0.2502 (Simulation time: 00 hr 03 min 08 sec)
Heartbeat CPU 0 instructions: 30000003 cycles: 84096759 heartbeat IPC: 0.2648 cumulative IPC: 0.2573 (Simulation time: 00 hr 05 min 21 sec)
Heartbeat CPU 0 instructions: 40000003 cycles: 122725146 heartbeat IPC: 0.2589 cumulative IPC: 0.2578 (Simulation time: 00 hr 07 min 41 sec)
Heartbeat CPU 0 instructions: 50000003 cycles: 160403284 heartbeat IPC: 0.2654 cumulative IPC: 0.2597 (Simulation time: 00 hr 09 min 54 sec)
Heartbeat CPU 0 instructions: 60000006 cycles: 196509650 heartbeat IPC: 0.277 cumulative IPC: 0.263 (Simulation time: 00 hr 12 min 05 sec)
Simulation finished CPU 0 instructions: 50000004 cycles: 190143376 cumulative IPC: 0.263 (Simulation time: 00 hr 12 min 05 sec)
Simulation complete CPU 0 instructions: 50000004 cycles: 190143376 cumulative IPC: 0.263 (Simulation time: 00 hr 12 min 05 sec)

ChampSim completed all CPUs

=== Simulation ===
CPU 0 runs traces/620.omnetpp_s-141B.champsimtrace.xz

Region of Interest Statistics

CPU 0 cumulative IPC: 0.263 instructions: 50000004 cycles: 190143376
CPU 0 Branch Prediction Accuracy: 92.06% MPKI: 16.71 Average ROB Occupancy at Mispredict: 37.36
Branch type MPKI
BRANCH_DIRECT_JUMP: 0.8368
BRANCH_INDIRECT: 0.3548
BRANCH_CONDITIONAL: 14.21
BRANCH_DIRECT_CALL: 0.00142
BRANCH_INDIRECT_CALL: 0.8571
BRANCH_RETURN: 0.4452

cpu0->cpu0_STLB TOTAL        ACCESS:    1112076 HIT:     867242 MISS:     244834 MSHR_MERGE:          0
cpu0->cpu0_STLB LOAD         ACCESS:    1112076 HIT:     867242 MISS:     244834 MSHR_MERGE:          0
cpu0->cpu0_STLB RFO          ACCESS:          0 HIT:          0 MISS:          0 MSHR_MERGE:          0
cpu0->cpu0_STLB PREFETCH     ACCESS:          0 HIT:          0 MISS:          0 MSHR_MERGE:          0
cpu0->cpu0_STLB WRITE        ACCESS:          0 HIT:          0 MISS:          0 MSHR_MERGE:          0
cpu0->cpu0_STLB TRANSLATION  ACCESS:          0 HIT:          0 MISS:          0 MSHR_MERGE:          0
cpu0->cpu0_STLB PREFETCH REQUESTED:          0 ISSUED:          0 USEFUL:          0 USELESS:          0
cpu0->cpu0_STLB AVERAGE MISS LATENCY: 325 cycles
cpu0->cpu0_L2C TOTAL        ACCESS:    2041530 HIT:     891496 MISS:    1150034 MSHR_MERGE:          0
cpu0->cpu0_L2C LOAD         ACCESS:     901424 HIT:     260092 MISS:     641332 MSHR_MERGE:          0
cpu0->cpu0_L2C RFO          ACCESS:     118283 HIT:      23686 MISS:      94597 MSHR_MERGE:          0
cpu0->cpu0_L2C PREFETCH     ACCESS:          0 HIT:          0 MISS:          0 MSHR_MERGE:          0
cpu0->cpu0_L2C WRITE        ACCESS:     477844 HIT:     476707 MISS:       1137 MSHR_MERGE:          0
cpu0->cpu0_L2C TRANSLATION  ACCESS:     543979 HIT:     131011 MISS:     412968 MSHR_MERGE:          0
cpu0->cpu0_L2C PREFETCH REQUESTED:          0 ISSUED:          0 USEFUL:          0 USELESS:          0
cpu0->cpu0_L2C AVERAGE MISS LATENCY: 155.4 cycles
cpu0->cpu0_L1I TOTAL        ACCESS:    6537538 HIT:    6503004 MISS:      34534 MSHR_MERGE:       6820
cpu0->cpu0_L1I LOAD         ACCESS:    6537538 HIT:    6503004 MISS:      34534 MSHR_MERGE:       6820
cpu0->cpu0_L1I RFO          ACCESS:          0 HIT:          0 MISS:          0 MSHR_MERGE:          0
cpu0->cpu0_L1I PREFETCH     ACCESS:          0 HIT:          0 MISS:          0 MSHR_MERGE:          0
cpu0->cpu0_L1I WRITE        ACCESS:          0 HIT:          0 MISS:          0 MSHR_MERGE:          0
cpu0->cpu0_L1I TRANSLATION  ACCESS:          0 HIT:          0 MISS:          0 MSHR_MERGE:          0
cpu0->cpu0_L1I PREFETCH REQUESTED:          0 ISSUED:          0 USEFUL:          0 USELESS:          0
cpu0->cpu0_L1I AVERAGE MISS LATENCY: 22.61 cycles
cpu0->cpu0_L1D TOTAL        ACCESS:   20654889 HIT:   18614969 MISS:    2039920 MSHR_MERGE:     503945
cpu0->cpu0_L1D LOAD         ACCESS:   10989704 HIT:    9859858 MISS:    1129846 MSHR_MERGE:     256133
cpu0->cpu0_L1D RFO          ACCESS:          0 HIT:          0 MISS:          0 MSHR_MERGE:          0
cpu0->cpu0_L1D PREFETCH     ACCESS:          0 HIT:          0 MISS:          0 MSHR_MERGE:          0
cpu0->cpu0_L1D WRITE        ACCESS:    9075757 HIT:    8710604 MISS:     365153 MSHR_MERGE:     246870
cpu0->cpu0_L1D TRANSLATION  ACCESS:     589428 HIT:      44507 MISS:     544921 MSHR_MERGE:        942
cpu0->cpu0_L1D PREFETCH REQUESTED:          0 ISSUED:          0 USEFUL:          0 USELESS:          0
cpu0->cpu0_L1D AVERAGE MISS LATENCY: 124.8 cycles
cpu0->cpu0_ITLB TOTAL        ACCESS:    5789336 HIT:    5651726 MISS:     137610 MSHR_MERGE:      59032
cpu0->cpu0_ITLB LOAD         ACCESS:    5789336 HIT:    5651726 MISS:     137610 MSHR_MERGE:      59032
cpu0->cpu0_ITLB RFO          ACCESS:          0 HIT:          0 MISS:          0 MSHR_MERGE:          0
cpu0->cpu0_ITLB PREFETCH     ACCESS:          0 HIT:          0 MISS:          0 MSHR_MERGE:          0
cpu0->cpu0_ITLB WRITE        ACCESS:          0 HIT:          0 MISS:          0 MSHR_MERGE:          0
cpu0->cpu0_ITLB TRANSLATION  ACCESS:          0 HIT:          0 MISS:          0 MSHR_MERGE:          0
cpu0->cpu0_ITLB PREFETCH REQUESTED:          0 ISSUED:          0 USEFUL:          0 USELESS:          0
cpu0->cpu0_ITLB AVERAGE MISS LATENCY: 7.833 cycles
cpu0->cpu0_DTLB TOTAL        ACCESS:   19115299 HIT:   17890687 MISS:    1224612 MSHR_MERGE:     191114
cpu0->cpu0_DTLB LOAD         ACCESS:   19115299 HIT:   17890687 MISS:    1224612 MSHR_MERGE:     191114
cpu0->cpu0_DTLB RFO          ACCESS:          0 HIT:          0 MISS:          0 MSHR_MERGE:          0
cpu0->cpu0_DTLB PREFETCH     ACCESS:          0 HIT:          0 MISS:          0 MSHR_MERGE:          0
cpu0->cpu0_DTLB WRITE        ACCESS:          0 HIT:          0 MISS:          0 MSHR_MERGE:          0
cpu0->cpu0_DTLB TRANSLATION  ACCESS:          0 HIT:          0 MISS:          0 MSHR_MERGE:          0
cpu0->cpu0_DTLB PREFETCH REQUESTED:          0 ISSUED:          0 USEFUL:          0 USELESS:          0
cpu0->cpu0_DTLB AVERAGE MISS LATENCY: 82.01 cycles
cpu0->LLC TOTAL        ACCESS:    1511325 HIT:     662850 MISS:     848475 MSHR_MERGE:          0
cpu0->LLC LOAD         ACCESS:     641332 HIT:     143685 MISS:     497647 MSHR_MERGE:          0
cpu0->LLC RFO          ACCESS:      94597 HIT:      34228 MISS:      60369 MSHR_MERGE:          0
cpu0->LLC PREFETCH     ACCESS:          0 HIT:          0 MISS:          0 MSHR_MERGE:          0
cpu0->LLC WRITE        ACCESS:     362428 HIT:     360985 MISS:       1443 MSHR_MERGE:          0
cpu0->LLC TRANSLATION  ACCESS:     412968 HIT:     123952 MISS:     289016 MSHR_MERGE:          0
cpu0->LLC PREFETCH REQUESTED:          0 ISSUED:          0 USEFUL:          0 USELESS:          0
cpu0->LLC AVERAGE MISS LATENCY: 189.3 cycles

DRAM Statistics

Channel 0 RQ ROW_BUFFER_HIT:       3048
  ROW_BUFFER_MISS:     843963
  AVG DBUS CONGESTED CYCLE: 19.91
Channel 0 WQ ROW_BUFFER_HIT:      83812
  ROW_BUFFER_MISS:     181263
  FULL:          0
Channel 0 REFRESHES ISSUED:      15845
