[VMEM] WARNING: physical memory size is smaller than virtual memory size.

*** ChampSim Multicore Out-of-Order Simulator ***
Warmup Instructions: 10000000
Simulation Instructions: 50000000
Number of CPUs: 1
Page size: 4096

Off-chip DRAM Size: 16 GiB Channels: 1 Width: 64-bit Data Rate: 3205 MT/s
Heartbeat CPU 0 instructions: 10000002 cycles: 2820692 heartbeat IPC: 3.545 cumulative IPC: 3.545 (Simulation time: 00 hr 00 min 20 sec)
Warmup finished CPU 0 instructions: 10000002 cycles: 2820692 cumulative IPC: 3.545 (Simulation time: 00 hr 00 min 20 sec)
Warmup complete CPU 0 instructions: 10000002 cycles: 2820692 cumulative IPC: 3.545 (Simulation time: 00 hr 00 min 20 sec)
Heartbeat CPU 0 instructions: 20000003 cycles: 10975513 heartbeat IPC: 1.226 cumulative IPC: 1.226 (Simulation time: 00 hr 00 min 58 sec)
Heartbeat CPU 0 instructions: 30000004 cycles: 19125196 heartbeat IPC: 1.227 cumulative IPC: 1.227 (Simulation time: 00 hr 01 min 37 sec)
Heartbeat CPU 0 instructions: 40000006 cycles: 27281278 heartbeat IPC: 1.226 cumulative IPC: 1.226 (Simulation time: 00 hr 02 min 15 sec)
Heartbeat CPU 0 instructions: 50000010 cycles: 35320846 heartbeat IPC: 1.244 cumulative IPC: 1.231 (Simulation time: 00 hr 02 min 53 sec)
Simulation finished CPU 0 instructions: 50000004 cycles: 40533343 cumulative IPC: 1.234 (Simulation time: 00 hr 03 min 31 sec)
Simulation complete CPU 0 instructions: 50000004 cycles: 40533343 cumulative IPC: 1.234 (Simulation time: 00 hr 03 min 31 sec)

ChampSim completed all CPUs

=== Simulation ===
CPU 0 runs traces/628.pop2_s-17B.champsimtrace.xz

Region of Interest Statistics

CPU 0 cumulative IPC: 1.234 instructions: 50000004 cycles: 40533343
CPU 0 Branch Prediction Accuracy: 96.84% MPKI: 3.626 Average ROB Occupancy at Mispredict: 96.81
Branch type MPKI
BRANCH_DIRECT_JUMP: 0.05126
BRANCH_INDIRECT: 0.00164
BRANCH_CONDITIONAL: 3.573
BRANCH_DIRECT_CALL: 0
BRANCH_INDIRECT_CALL: 0
BRANCH_RETURN: 0

cpu0->cpu0_STLB TOTAL        ACCESS:      44049 HIT:      41584 MISS:       2465 MSHR_MERGE:          0
cpu0->cpu0_STLB LOAD         ACCESS:      44049 HIT:      41584 MISS:       2465 MSHR_MERGE:          0
cpu0->cpu0_STLB RFO          ACCESS:          0 HIT:          0 MISS:          0 MSHR_MERGE:          0
cpu0->cpu0_STLB PREFETCH     ACCESS:          0 HIT:          0 MISS:          0 MSHR_MERGE:          0
cpu0->cpu0_STLB WRITE        ACCESS:          0 HIT:          0 MISS:          0 MSHR_MERGE:          0
cpu0->cpu0_STLB TRANSLATION  ACCESS:          0 HIT:          0 MISS:          0 MSHR_MERGE:          0
cpu0->cpu0_STLB PREFETCH REQUESTED:          0 ISSUED:          0 USEFUL:          0 USELESS:          0
cpu0->cpu0_STLB AVERAGE MISS LATENCY: 741.5 cycles
cpu0->cpu0_L2C TOTAL        ACCESS:    1496725 HIT:    1038679 MISS:     458046 MSHR_MERGE:          0
cpu0->cpu0_L2C LOAD         ACCESS:     812865 HIT:     466287 MISS:     346578 MSHR_MERGE:          0
cpu0->cpu0_L2C RFO          ACCESS:     273706 HIT:     167251 MISS:     106455 MSHR_MERGE:          0
cpu0->cpu0_L2C PREFETCH     ACCESS:          0 HIT:          0 MISS:          0 MSHR_MERGE:          0
cpu0->cpu0_L2C WRITE        ACCESS:     404921 HIT:     404891 MISS:         30 MSHR_MERGE:          0
cpu0->cpu0_L2C TRANSLATION  ACCESS:       5233 HIT:        250 MISS:       4983 MSHR_MERGE:          0
cpu0->cpu0_L2C PREFETCH REQUESTED:          0 ISSUED:          0 USEFUL:          0 USELESS:          0
cpu0->cpu0_L2C AVERAGE MISS LATENCY: 79.18 cycles
cpu0->cpu0_L1I TOTAL        ACCESS:    3709718 HIT:    3600903 MISS:     108815 MSHR_MERGE:      49646
cpu0->cpu0_L1I LOAD         ACCESS:    3709718 HIT:    3600903 MISS:     108815 MSHR_MERGE:      49646
cpu0->cpu0_L1I RFO          ACCESS:          0 HIT:          0 MISS:          0 MSHR_MERGE:          0
cpu0->cpu0_L1I PREFETCH     ACCESS:          0 HIT:          0 MISS:          0 MSHR_MERGE:          0
cpu0->cpu0_L1I WRITE        ACCESS:          0 HIT:          0 MISS:          0 MSHR_MERGE:          0
cpu0->cpu0_L1I TRANSLATION  ACCESS:          0 HIT:          0 MISS:          0 MSHR_MERGE:          0
cpu0->cpu0_L1I PREFETCH REQUESTED:          0 ISSUED:          0 USEFUL:          0 USELESS:          0
cpu0->cpu0_L1I AVERAGE MISS LATENCY: 21.88 cycles
cpu0->cpu0_L1D TOTAL        ACCESS:   13034630 HIT:   10692219 MISS:    2342411 MSHR_MERGE:    1309773
cpu0->cpu0_L1D LOAD         ACCESS:    9242680 HIT:    7820751 MISS:    1421929 MSHR_MERGE:     668232
cpu0->cpu0_L1D RFO          ACCESS:          0 HIT:          0 MISS:          0 MSHR_MERGE:          0
cpu0->cpu0_L1D PREFETCH     ACCESS:          0 HIT:          0 MISS:          0 MSHR_MERGE:          0
cpu0->cpu0_L1D WRITE        ACCESS:    3786201 HIT:    2871080 MISS:     915121 MSHR_MERGE:     641413
cpu0->cpu0_L1D TRANSLATION  ACCESS:       5749 HIT:        388 MISS:       5361 MSHR_MERGE:        128
cpu0->cpu0_L1D PREFETCH REQUESTED:          0 ISSUED:          0 USEFUL:          0 USELESS:          0
cpu0->cpu0_L1D AVERAGE MISS LATENCY: 42.78 cycles
cpu0->cpu0_ITLB TOTAL        ACCESS:    3015653 HIT:    3009983 MISS:       5670 MSHR_MERGE:       3191
cpu0->cpu0_ITLB LOAD         ACCESS:    3015653 HIT:    3009983 MISS:       5670 MSHR_MERGE:       3191
cpu0->cpu0_ITLB RFO          ACCESS:          0 HIT:          0 MISS:          0 MSHR_MERGE:          0
cpu0->cpu0_ITLB PREFETCH     ACCESS:          0 HIT:          0 MISS:          0 MSHR_MERGE:          0
cpu0->cpu0_ITLB WRITE        ACCESS:          0 HIT:          0 MISS:          0 MSHR_MERGE:          0
cpu0->cpu0_ITLB TRANSLATION  ACCESS:          0 HIT:          0 MISS:          0 MSHR_MERGE:          0
cpu0->cpu0_ITLB PREFETCH REQUESTED:          0 ISSUED:          0 USEFUL:          0 USELESS:          0
cpu0->cpu0_ITLB AVERAGE MISS LATENCY: 5.002 cycles
cpu0->cpu0_DTLB TOTAL        ACCESS:   12552946 HIT:   12484847 MISS:      68099 MSHR_MERGE:      26529
cpu0->cpu0_DTLB LOAD         ACCESS:   12552946 HIT:   12484847 MISS:      68099 MSHR_MERGE:      26529
cpu0->cpu0_DTLB RFO          ACCESS:          0 HIT:          0 MISS:          0 MSHR_MERGE:          0
cpu0->cpu0_DTLB PREFETCH     ACCESS:          0 HIT:          0 MISS:          0 MSHR_MERGE:          0
cpu0->cpu0_DTLB WRITE        ACCESS:          0 HIT:          0 MISS:          0 MSHR_MERGE:          0
cpu0->cpu0_DTLB TRANSLATION  ACCESS:          0 HIT:          0 MISS:          0 MSHR_MERGE:          0
cpu0->cpu0_DTLB PREFETCH REQUESTED:          0 ISSUED:          0 USEFUL:          0 USELESS:          0
cpu0->cpu0_DTLB AVERAGE MISS LATENCY: 49.03 cycles
cpu0->LLC TOTAL        ACCESS:     630767 HIT:     476427 MISS:     154340 MSHR_MERGE:          0
cpu0->LLC LOAD         ACCESS:     346578 HIT:     207748 MISS:     138830 MSHR_MERGE:          0
cpu0->LLC RFO          ACCESS:     106455 HIT:      95563 MISS:      10892 MSHR_MERGE:          0
cpu0->LLC PREFETCH     ACCESS:          0 HIT:          0 MISS:          0 MSHR_MERGE:          0
cpu0->LLC WRITE        ACCESS:     172751 HIT:     171673 MISS:       1078 MSHR_MERGE:          0
cpu0->LLC TRANSLATION  ACCESS:       4983 HIT:       1443 MISS:       3540 MSHR_MERGE:          0
cpu0->LLC PREFETCH REQUESTED:          0 ISSUED:          0 USEFUL:          0 USELESS:          0
cpu0->LLC AVERAGE MISS LATENCY: 189.5 cycles

DRAM Statistics

Channel 0 RQ ROW_BUFFER_HIT:       4392
  ROW_BUFFER_MISS:     148870
  AVG DBUS CONGESTED CYCLE: 15.79
Channel 0 WQ ROW_BUFFER_HIT:      12223
  ROW_BUFFER_MISS:      32390
  FULL:          0
Channel 0 REFRESHES ISSUED:       3377
