[VMEM] WARNING: physical memory size is smaller than virtual memory size.

*** ChampSim Multicore Out-of-Order Simulator ***
Warmup Instructions: 10000000
Simulation Instructions: 50000000
Number of CPUs: 1
Page size: 4096

Off-chip DRAM Size: 16 GiB Channels: 1 Width: 64-bit Data Rate: 3205 MT/s
Heartbeat CPU 0 instructions: 10000001 cycles: 2964776 heartbeat IPC: 3.373 cumulative IPC: 3.373 (Simulation time: 00 hr 00 min 29 sec)
Warmup finished CPU 0 instructions: 10000001 cycles: 2964776 cumulative IPC: 3.373 (Simulation time: 00 hr 00 min 29 sec)
Warmup complete CPU 0 instructions: 10000001 cycles: 2964776 cumulative IPC: 3.373 (Simulation time: 00 hr 00 min 29 sec)
Heartbeat CPU 0 instructions: 20000002 cycles: 9141596 heartbeat IPC: 1.619 cumulative IPC: 1.619 (Simulation time: 00 hr 01 min 13 sec)
Heartbeat CPU 0 instructions: 30000006 cycles: 15269475 heartbeat IPC: 1.632 cumulative IPC: 1.625 (Simulation time: 00 hr 01 min 57 sec)
Heartbeat CPU 0 instructions: 40000007 cycles: 21352882 heartbeat IPC: 1.644 cumulative IPC: 1.631 (Simulation time: 00 hr 02 min 40 sec)
Heartbeat CPU 0 instructions: 50000007 cycles: 27470644 heartbeat IPC: 1.635 cumulative IPC: 1.632 (Simulation time: 00 hr 03 min 24 sec)
Simulation finished CPU 0 instructions: 50000002 cycles: 34005933 cumulative IPC: 1.47 (Simulation time: 00 hr 04 min 23 sec)
Simulation complete CPU 0 instructions: 50000002 cycles: 34005933 cumulative IPC: 1.47 (Simulation time: 00 hr 04 min 23 sec)

ChampSim completed all CPUs

=== Simulation ===
CPU 0 runs traces/607.cactuBSSN_s-2421B.champsimtrace.xz

Region of Interest Statistics

CPU 0 cumulative IPC: 1.47 instructions: 50000002 cycles: 34005933
CPU 0 Branch Prediction Accuracy: 89.95% MPKI: 0.8274 Average ROB Occupancy at Mispredict: 311.2
Branch type MPKI
BRANCH_DIRECT_JUMP: 0.00124
BRANCH_INDIRECT: 0.00164
BRANCH_CONDITIONAL: 0.4966
BRANCH_DIRECT_CALL: 0.01318
BRANCH_INDIRECT_CALL: 6e-05
BRANCH_RETURN: 0.3147

cpu0->cpu0_STLB TOTAL        ACCESS:    2215523 HIT:    2212464 MISS:       3059 MSHR_MERGE:          0
cpu0->cpu0_STLB LOAD         ACCESS:    2215523 HIT:    2212464 MISS:       3059 MSHR_MERGE:          0
cpu0->cpu0_STLB RFO          ACCESS:          0 HIT:          0 MISS:          0 MSHR_MERGE:          0
cpu0->cpu0_STLB PREFETCH     ACCESS:          0 HIT:          0 MISS:          0 MSHR_MERGE:          0
cpu0->cpu0_STLB WRITE        ACCESS:          0 HIT:          0 MISS:          0 MSHR_MERGE:          0
cpu0->cpu0_STLB TRANSLATION  ACCESS:          0 HIT:          0 MISS:          0 MSHR_MERGE:          0
cpu0->cpu0_STLB PREFETCH REQUESTED:          0 ISSUED:          0 USEFUL:          0 USELESS:          0
cpu0->cpu0_STLB AVERAGE MISS LATENCY: 827.3 cycles
cpu0->cpu0_L2C TOTAL        ACCESS:    5471509 HIT:    5140387 MISS:     331122 MSHR_MERGE:          0
cpu0->cpu0_L2C LOAD         ACCESS:    4787415 HIT:    4491999 MISS:     295416 MSHR_MERGE:          0
cpu0->cpu0_L2C RFO          ACCESS:     321715 HIT:     293137 MISS:      28578 MSHR_MERGE:          0
cpu0->cpu0_L2C PREFETCH     ACCESS:          0 HIT:          0 MISS:          0 MSHR_MERGE:          0
cpu0->cpu0_L2C WRITE        ACCESS:     354929 HIT:     354886 MISS:         43 MSHR_MERGE:          0
cpu0->cpu0_L2C TRANSLATION  ACCESS:       7450 HIT:        365 MISS:       7085 MSHR_MERGE:          0
cpu0->cpu0_L2C PREFETCH REQUESTED:          0 ISSUED:          0 USEFUL:          0 USELESS:          0
cpu0->cpu0_L2C AVERAGE MISS LATENCY: 133.3 cycles
cpu0->cpu0_L1I TOTAL        ACCESS:   10550218 HIT:    8421092 MISS:    2129126 MSHR_MERGE:    1039372
cpu0->cpu0_L1I LOAD         ACCESS:   10550218 HIT:    8421092 MISS:    2129126 MSHR_MERGE:    1039372
cpu0->cpu0_L1I RFO          ACCESS:          0 HIT:          0 MISS:          0 MSHR_MERGE:          0
cpu0->cpu0_L1I PREFETCH     ACCESS:          0 HIT:          0 MISS:          0 MSHR_MERGE:          0
cpu0->cpu0_L1I WRITE        ACCESS:          0 HIT:          0 MISS:          0 MSHR_MERGE:          0
cpu0->cpu0_L1I TRANSLATION  ACCESS:          0 HIT:          0 MISS:          0 MSHR_MERGE:          0
cpu0->cpu0_L1I PREFETCH REQUESTED:          0 ISSUED:          0 USEFUL:          0 USELESS:          0
cpu0->cpu0_L1I AVERAGE MISS LATENCY: 7.434 cycles
cpu0->cpu0_L1D TOTAL        ACCESS:   18717250 HIT:   14309408 MISS:    4407842 MSHR_MERGE:     378439
cpu0->cpu0_L1D LOAD         ACCESS:   14418114 HIT:   10374888 MISS:    4043226 MSHR_MERGE:     343021
cpu0->cpu0_L1D RFO          ACCESS:          0 HIT:          0 MISS:          0 MSHR_MERGE:          0
cpu0->cpu0_L1D PREFETCH     ACCESS:          0 HIT:          0 MISS:          0 MSHR_MERGE:          0
cpu0->cpu0_L1D WRITE        ACCESS:    4291483 HIT:    3934389 MISS:     357094 MSHR_MERGE:      35346
cpu0->cpu0_L1D TRANSLATION  ACCESS:       7653 HIT:        131 MISS:       7522 MSHR_MERGE:         72
cpu0->cpu0_L1D PREFETCH REQUESTED:          0 ISSUED:          0 USEFUL:          0 USELESS:          0
cpu0->cpu0_L1D AVERAGE MISS LATENCY: 19.96 cycles
cpu0->cpu0_ITLB TOTAL        ACCESS:    8370766 HIT:    8370637 MISS:        129 MSHR_MERGE:         69
cpu0->cpu0_ITLB LOAD         ACCESS:    8370766 HIT:    8370637 MISS:        129 MSHR_MERGE:         69
cpu0->cpu0_ITLB RFO          ACCESS:          0 HIT:          0 MISS:          0 MSHR_MERGE:          0
cpu0->cpu0_ITLB PREFETCH     ACCESS:          0 HIT:          0 MISS:          0 MSHR_MERGE:          0
cpu0->cpu0_ITLB WRITE        ACCESS:          0 HIT:          0 MISS:          0 MSHR_MERGE:          0
cpu0->cpu0_ITLB TRANSLATION  ACCESS:          0 HIT:          0 MISS:          0 MSHR_MERGE:          0
cpu0->cpu0_ITLB PREFETCH REQUESTED:          0 ISSUED:          0 USEFUL:          0 USELESS:          0
cpu0->cpu0_ITLB AVERAGE MISS LATENCY: 793.8 cycles
cpu0->cpu0_DTLB TOTAL        ACCESS:   17657333 HIT:   15056251 MISS:    2601082 MSHR_MERGE:     385619
cpu0->cpu0_DTLB LOAD         ACCESS:   17657333 HIT:   15056251 MISS:    2601082 MSHR_MERGE:     385619
cpu0->cpu0_DTLB RFO          ACCESS:          0 HIT:          0 MISS:          0 MSHR_MERGE:          0
cpu0->cpu0_DTLB PREFETCH     ACCESS:          0 HIT:          0 MISS:          0 MSHR_MERGE:          0
cpu0->cpu0_DTLB WRITE        ACCESS:          0 HIT:          0 MISS:          0 MSHR_MERGE:          0
cpu0->cpu0_DTLB TRANSLATION  ACCESS:          0 HIT:          0 MISS:          0 MSHR_MERGE:          0
cpu0->cpu0_DTLB PREFETCH REQUESTED:          0 ISSUED:          0 USEFUL:          0 USELESS:          0
cpu0->cpu0_DTLB AVERAGE MISS LATENCY: 6.163 cycles
cpu0->LLC TOTAL        ACCESS:     366892 HIT:     186333 MISS:     180559 MSHR_MERGE:          0
cpu0->LLC LOAD         ACCESS:     295416 HIT:     144516 MISS:     150900 MSHR_MERGE:          0
cpu0->LLC RFO          ACCESS:      28552 HIT:       3878 MISS:      24674 MSHR_MERGE:          0
cpu0->LLC PREFETCH     ACCESS:          0 HIT:          0 MISS:          0 MSHR_MERGE:          0
cpu0->LLC WRITE        ACCESS:      35839 HIT:      35773 MISS:         66 MSHR_MERGE:          0
cpu0->LLC TRANSLATION  ACCESS:       7085 HIT:       2166 MISS:       4919 MSHR_MERGE:          0
cpu0->LLC PREFETCH REQUESTED:          0 ISSUED:          0 USEFUL:          0 USELESS:          0
cpu0->LLC AVERAGE MISS LATENCY: 216 cycles

DRAM Statistics

Channel 0 RQ ROW_BUFFER_HIT:        108
  ROW_BUFFER_MISS:     180385
  AVG DBUS CONGESTED CYCLE: 9.241
Channel 0 WQ ROW_BUFFER_HIT:       3856
  ROW_BUFFER_MISS:      29977
  FULL:          0
Channel 0 REFRESHES ISSUED:       2833
