[VMEM] WARNING: physical memory size is smaller than virtual memory size.

*** ChampSim Multicore Out-of-Order Simulator ***
Warmup Instructions: 10000000
Simulation Instructions: 50000000
Number of CPUs: 1
Page size: 4096

Off-chip DRAM Size: 16 GiB Channels: 1 Width: 64-bit Data Rate: 3205 MT/s
Heartbeat CPU 0 instructions: 10000000 cycles: 3547766 heartbeat IPC: 2.819 cumulative IPC: 2.819 (Simulation time: 00 hr 00 min 28 sec)
Warmup finished CPU 0 instructions: 10000000 cycles: 3547766 cumulative IPC: 2.819 (Simulation time: 00 hr 00 min 28 sec)
Warmup complete CPU 0 instructions: 10000000 cycles: 3547766 cumulative IPC: 2.819 (Simulation time: 00 hr 00 min 28 sec)
Heartbeat CPU 0 instructions: 20000004 cycles: 24909457 heartbeat IPC: 0.4681 cumulative IPC: 0.4681 (Simulation time: 00 hr 02 min 46 sec)
Heartbeat CPU 0 instructions: 30000008 cycles: 45852217 heartbeat IPC: 0.4775 cumulative IPC: 0.4728 (Simulation time: 00 hr 04 min 59 sec)
Heartbeat CPU 0 instructions: 40000010 cycles: 66009049 heartbeat IPC: 0.4961 cumulative IPC: 0.4803 (Simulation time: 00 hr 07 min 08 sec)
Heartbeat CPU 0 instructions: 50000011 cycles: 85402718 heartbeat IPC: 0.5156 cumulative IPC: 0.4887 (Simulation time: 00 hr 09 min 13 sec)
Simulation finished CPU 0 instructions: 50000000 cycles: 100470353 cumulative IPC: 0.4977 (Simulation time: 00 hr 11 min 13 sec)
Simulation complete CPU 0 instructions: 50000000 cycles: 100470353 cumulative IPC: 0.4977 (Simulation time: 00 hr 11 min 13 sec)

ChampSim completed all CPUs

=== Simulation ===
CPU 0 runs traces/619.lbm_s-2676B.champsimtrace.xz

Region of Interest Statistics

CPU 0 cumulative IPC: 0.4977 instructions: 50000000 cycles: 100470353
CPU 0 Branch Prediction Accuracy: 97.62% MPKI: 0.3813 Average ROB Occupancy at Mispredict: 245.6
Branch type MPKI
BRANCH_DIRECT_JUMP: 0
BRANCH_INDIRECT: 0
BRANCH_CONDITIONAL: 0.3813
BRANCH_DIRECT_CALL: 0
BRANCH_INDIRECT_CALL: 0
BRANCH_RETURN: 0

cpu0->cpu0_STLB TOTAL        ACCESS:      58518 HIT:      26765 MISS:      31753 MSHR_MERGE:          0
cpu0->cpu0_STLB LOAD         ACCESS:      58518 HIT:      26765 MISS:      31753 MSHR_MERGE:          0
cpu0->cpu0_STLB RFO          ACCESS:          0 HIT:          0 MISS:          0 MSHR_MERGE:          0
cpu0->cpu0_STLB PREFETCH     ACCESS:          0 HIT:          0 MISS:          0 MSHR_MERGE:          0
cpu0->cpu0_STLB WRITE        ACCESS:          0 HIT:          0 MISS:          0 MSHR_MERGE:          0
cpu0->cpu0_STLB TRANSLATION  ACCESS:          0 HIT:          0 MISS:          0 MSHR_MERGE:          0
cpu0->cpu0_STLB PREFETCH REQUESTED:          0 ISSUED:          0 USEFUL:          0 USELESS:          0
cpu0->cpu0_STLB AVERAGE MISS LATENCY: 891.2 cycles
cpu0->cpu0_L2C TOTAL        ACCESS:    6272892 HIT:    4154178 MISS:    2118714 MSHR_MERGE:          0
cpu0->cpu0_L2C LOAD         ACCESS:     507943 HIT:         15 MISS:     507928 MSHR_MERGE:          0
cpu0->cpu0_L2C RFO          ACCESS:    2864576 HIT:    1289543 MISS:    1575033 MSHR_MERGE:          0
cpu0->cpu0_L2C PREFETCH     ACCESS:          0 HIT:          0 MISS:          0 MSHR_MERGE:          0
cpu0->cpu0_L2C WRITE        ACCESS:    2864620 HIT:    2864620 MISS:          0 MSHR_MERGE:          0
cpu0->cpu0_L2C TRANSLATION  ACCESS:      35753 HIT:          0 MISS:      35753 MSHR_MERGE:          0
cpu0->cpu0_L2C PREFETCH REQUESTED:          0 ISSUED:          0 USEFUL:          0 USELESS:          0
cpu0->cpu0_L2C AVERAGE MISS LATENCY: 473.1 cycles
cpu0->cpu0_L1I TOTAL        ACCESS:    8248659 HIT:    8248659 MISS:          0 MSHR_MERGE:          0
cpu0->cpu0_L1I LOAD         ACCESS:    8248659 HIT:    8248659 MISS:          0 MSHR_MERGE:          0
cpu0->cpu0_L1I RFO          ACCESS:          0 HIT:          0 MISS:          0 MSHR_MERGE:          0
cpu0->cpu0_L1I PREFETCH     ACCESS:          0 HIT:          0 MISS:          0 MSHR_MERGE:          0
cpu0->cpu0_L1I WRITE        ACCESS:          0 HIT:          0 MISS:          0 MSHR_MERGE:          0
cpu0->cpu0_L1I TRANSLATION  ACCESS:          0 HIT:          0 MISS:          0 MSHR_MERGE:          0
cpu0->cpu0_L1I PREFETCH REQUESTED:          0 ISSUED:          0 USEFUL:          0 USELESS:          0
cpu0->cpu0_L1I AVERAGE MISS LATENCY: - cycles
cpu0->cpu0_L1D TOTAL        ACCESS:   11840747 HIT:    7645642 MISS:    4195105 MSHR_MERGE:     786785
cpu0->cpu0_L1D LOAD         ACCESS:    3070594 HIT:    1904375 MISS:    1166219 MSHR_MERGE:     658276
cpu0->cpu0_L1D RFO          ACCESS:          0 HIT:          0 MISS:          0 MSHR_MERGE:          0
cpu0->cpu0_L1D PREFETCH     ACCESS:          0 HIT:          0 MISS:          0 MSHR_MERGE:          0
cpu0->cpu0_L1D WRITE        ACCESS:    8706615 HIT:    5713482 MISS:    2993133 MSHR_MERGE:     128509
cpu0->cpu0_L1D TRANSLATION  ACCESS:      63538 HIT:      27785 MISS:      35753 MSHR_MERGE:          0
cpu0->cpu0_L1D PREFETCH REQUESTED:          0 ISSUED:          0 USEFUL:          0 USELESS:          0
cpu0->cpu0_L1D AVERAGE MISS LATENCY: 303.6 cycles
cpu0->cpu0_ITLB TOTAL        ACCESS:    6172745 HIT:    6172745 MISS:          0 MSHR_MERGE:          0
cpu0->cpu0_ITLB LOAD         ACCESS:    6172745 HIT:    6172745 MISS:          0 MSHR_MERGE:          0
cpu0->cpu0_ITLB RFO          ACCESS:          0 HIT:          0 MISS:          0 MSHR_MERGE:          0
cpu0->cpu0_ITLB PREFETCH     ACCESS:          0 HIT:          0 MISS:          0 MSHR_MERGE:          0
cpu0->cpu0_ITLB WRITE        ACCESS:          0 HIT:          0 MISS:          0 MSHR_MERGE:          0
cpu0->cpu0_ITLB TRANSLATION  ACCESS:          0 HIT:          0 MISS:          0 MSHR_MERGE:          0
cpu0->cpu0_ITLB PREFETCH REQUESTED:          0 ISSUED:          0 USEFUL:          0 USELESS:          0
cpu0->cpu0_ITLB AVERAGE MISS LATENCY: - cycles
cpu0->cpu0_DTLB TOTAL        ACCESS:   11063046 HIT:   10897197 MISS:     165849 MSHR_MERGE:     107331
cpu0->cpu0_DTLB LOAD         ACCESS:   11063046 HIT:   10897197 MISS:     165849 MSHR_MERGE:     107331
cpu0->cpu0_DTLB RFO          ACCESS:          0 HIT:          0 MISS:          0 MSHR_MERGE:          0
cpu0->cpu0_DTLB PREFETCH     ACCESS:          0 HIT:          0 MISS:          0 MSHR_MERGE:          0
cpu0->cpu0_DTLB WRITE        ACCESS:          0 HIT:          0 MISS:          0 MSHR_MERGE:          0
cpu0->cpu0_DTLB TRANSLATION  ACCESS:          0 HIT:          0 MISS:          0 MSHR_MERGE:          0
cpu0->cpu0_DTLB PREFETCH REQUESTED:          0 ISSUED:          0 USEFUL:          0 USELESS:          0
cpu0->cpu0_DTLB AVERAGE MISS LATENCY: 489.1 cycles
cpu0->LLC TOTAL        ACCESS:    3693485 HIT:    1626104 MISS:    2067381 MSHR_MERGE:          0
cpu0->LLC LOAD         ACCESS:     507928 HIT:          3 MISS:     507925 MSHR_MERGE:          0
cpu0->LLC RFO          ACCESS:    1575032 HIT:      51335 MISS:    1523697 MSHR_MERGE:          0
cpu0->LLC PREFETCH     ACCESS:          0 HIT:          0 MISS:          0 MSHR_MERGE:          0
cpu0->LLC WRITE        ACCESS:    1574772 HIT:    1574766 MISS:          6 MSHR_MERGE:          0
cpu0->LLC TRANSLATION  ACCESS:      35753 HIT:          0 MISS:      35753 MSHR_MERGE:          0
cpu0->LLC PREFETCH REQUESTED:          0 ISSUED:          0 USEFUL:          0 USELESS:          0
cpu0->LLC AVERAGE MISS LATENCY: 468.4 cycles

DRAM Statistics

Channel 0 RQ ROW_BUFFER_HIT:     101556
  ROW_BUFFER_MISS:    1965819
  AVG DBUS CONGESTED CYCLE: 7.114
Channel 0 WQ ROW_BUFFER_HIT:     248377
  ROW_BUFFER_MISS:    1275107
  FULL:          0
Channel 0 REFRESHES ISSUED:       8373
