[VMEM] WARNING: physical memory size is smaller than virtual memory size.

*** ChampSim Multicore Out-of-Order Simulator ***
Warmup Instructions: 10000000
Simulation Instructions: 50000000
Number of CPUs: 1
Page size: 4096

Off-chip DRAM Size: 16 GiB Channels: 1 Width: 64-bit Data Rate: 3205 MT/s
Heartbeat CPU 0 instructions: 10000000 cycles: 2857112 heartbeat IPC: 3.5 cumulative IPC: 3.5 (Simulation time: 00 hr 00 min 24 sec)
Warmup finished CPU 0 instructions: 10000000 cycles: 2857112 cumulative IPC: 3.5 (Simulation time: 00 hr 00 min 24 sec)
Warmup complete CPU 0 instructions: 10000000 cycles: 2857112 cumulative IPC: 3.5 (Simulation time: 00 hr 00 min 24 sec)
Heartbeat CPU 0 instructions: 20000004 cycles: 7562528 heartbeat IPC: 2.125 cumulative IPC: 2.125 (Simulation time: 00 hr 00 min 52 sec)
Heartbeat CPU 0 instructions: 30000004 cycles: 12994210 heartbeat IPC: 1.841 cumulative IPC: 1.973 (Simulation time: 00 hr 01 min 20 sec)
Heartbeat CPU 0 instructions: 40000005 cycles: 17980124 heartbeat IPC: 2.006 cumulative IPC: 1.984 (Simulation time: 00 hr 01 min 49 sec)
Heartbeat CPU 0 instructions: 50000005 cycles: 22502844 heartbeat IPC: 2.211 cumulative IPC: 2.036 (Simulation time: 00 hr 02 min 17 sec)
Simulation finished CPU 0 instructions: 50000001 cycles: 23948445 cumulative IPC: 2.088 (Simulation time: 00 hr 02 min 43 sec)
Simulation complete CPU 0 instructions: 50000001 cycles: 23948445 cumulative IPC: 2.088 (Simulation time: 00 hr 02 min 43 sec)

ChampSim completed all CPUs

=== Simulation ===
CPU 0 runs traces/600.perlbench_s-1273B.champsimtrace.xz

Region of Interest Statistics

CPU 0 cumulative IPC: 2.088 instructions: 50000001 cycles: 23948445
CPU 0 Branch Prediction Accuracy: 96.93% MPKI: 4.155 Average ROB Occupancy at Mispredict: 101.5
Branch type MPKI
BRANCH_DIRECT_JUMP: 0.01212
BRANCH_INDIRECT: 0.379
BRANCH_CONDITIONAL: 3.761
BRANCH_DIRECT_CALL: 0.00112
BRANCH_INDIRECT_CALL: 0.00022
BRANCH_RETURN: 0.00112

cpu0->cpu0_STLB TOTAL        ACCESS:      13649 HIT:      13353 MISS:        296 MSHR_MERGE:          0
cpu0->cpu0_STLB LOAD         ACCESS:      13649 HIT:      13353 MISS:        296 MSHR_MERGE:          0
cpu0->cpu0_STLB RFO          ACCESS:          0 HIT:          0 MISS:          0 MSHR_MERGE:          0
cpu0->cpu0_STLB PREFETCH     ACCESS:          0 HIT:          0 MISS:          0 MSHR_MERGE:          0
cpu0->cpu0_STLB WRITE        ACCESS:          0 HIT:          0 MISS:          0 MSHR_MERGE:          0
cpu0->cpu0_STLB TRANSLATION  ACCESS:          0 HIT:          0 MISS:          0 MSHR_MERGE:          0
cpu0->cpu0_STLB PREFETCH REQUESTED:          0 ISSUED:          0 USEFUL:          0 USELESS:          0
cpu0->cpu0_STLB AVERAGE MISS LATENCY: 797.6 cycles
cpu0->cpu0_L2C TOTAL        ACCESS:       4484 HIT:       1449 MISS:       3035 MSHR_MERGE:          0
cpu0->cpu0_L2C LOAD         ACCESS:       3571 HIT:       1149 MISS:       2422 MSHR_MERGE:          0
cpu0->cpu0_L2C RFO          ACCESS:         95 HIT:         25 MISS:         70 MSHR_MERGE:          0
cpu0->cpu0_L2C PREFETCH     ACCESS:          0 HIT:          0 MISS:          0 MSHR_MERGE:          0
cpu0->cpu0_L2C WRITE        ACCESS:        263 HIT:        263 MISS:          0 MSHR_MERGE:          0
cpu0->cpu0_L2C TRANSLATION  ACCESS:        555 HIT:         12 MISS:        543 MSHR_MERGE:          0
cpu0->cpu0_L2C PREFETCH REQUESTED:          0 ISSUED:          0 USEFUL:          0 USELESS:          0
cpu0->cpu0_L2C AVERAGE MISS LATENCY: 188 cycles
cpu0->cpu0_L1I TOTAL        ACCESS:    1723819 HIT:    1722257 MISS:       1562 MSHR_MERGE:        289
cpu0->cpu0_L1I LOAD         ACCESS:    1723819 HIT:    1722257 MISS:       1562 MSHR_MERGE:        289
cpu0->cpu0_L1I RFO          ACCESS:          0 HIT:          0 MISS:          0 MSHR_MERGE:          0
cpu0->cpu0_L1I PREFETCH     ACCESS:          0 HIT:          0 MISS:          0 MSHR_MERGE:          0
cpu0->cpu0_L1I WRITE        ACCESS:          0 HIT:          0 MISS:          0 MSHR_MERGE:          0
cpu0->cpu0_L1I TRANSLATION  ACCESS:          0 HIT:          0 MISS:          0 MSHR_MERGE:          0
cpu0->cpu0_L1I PREFETCH REQUESTED:          0 ISSUED:          0 USEFUL:          0 USELESS:          0
cpu0->cpu0_L1I AVERAGE MISS LATENCY: 35.8 cycles
cpu0->cpu0_L1D TOTAL        ACCESS:   16935617 HIT:   16931652 MISS:       3965 MSHR_MERGE:       1017
cpu0->cpu0_L1D LOAD         ACCESS:    6885901 HIT:    6882812 MISS:       3089 MSHR_MERGE:        791
cpu0->cpu0_L1D RFO          ACCESS:          0 HIT:          0 MISS:          0 MSHR_MERGE:          0
cpu0->cpu0_L1D PREFETCH     ACCESS:          0 HIT:          0 MISS:          0 MSHR_MERGE:          0
cpu0->cpu0_L1D WRITE        ACCESS:   10049099 HIT:   10048780 MISS:        319 MSHR_MERGE:        224
cpu0->cpu0_L1D TRANSLATION  ACCESS:        617 HIT:         60 MISS:        557 MSHR_MERGE:          2
cpu0->cpu0_L1D PREFETCH REQUESTED:          0 ISSUED:          0 USEFUL:          0 USELESS:          0
cpu0->cpu0_L1D AVERAGE MISS LATENCY: 190.2 cycles
cpu0->cpu0_ITLB TOTAL        ACCESS:    1497045 HIT:    1496644 MISS:        401 MSHR_MERGE:        274
cpu0->cpu0_ITLB LOAD         ACCESS:    1497045 HIT:    1496644 MISS:        401 MSHR_MERGE:        274
cpu0->cpu0_ITLB RFO          ACCESS:          0 HIT:          0 MISS:          0 MSHR_MERGE:          0
cpu0->cpu0_ITLB PREFETCH     ACCESS:          0 HIT:          0 MISS:          0 MSHR_MERGE:          0
cpu0->cpu0_ITLB WRITE        ACCESS:          0 HIT:          0 MISS:          0 MSHR_MERGE:          0
cpu0->cpu0_ITLB TRANSLATION  ACCESS:          0 HIT:          0 MISS:          0 MSHR_MERGE:          0
cpu0->cpu0_ITLB PREFETCH REQUESTED:          0 ISSUED:          0 USEFUL:          0 USELESS:          0
cpu0->cpu0_ITLB AVERAGE MISS LATENCY: 54.17 cycles
cpu0->cpu0_DTLB TOTAL        ACCESS:   15317941 HIT:   15303130 MISS:      14811 MSHR_MERGE:       1289
cpu0->cpu0_DTLB LOAD         ACCESS:   15317941 HIT:   15303130 MISS:      14811 MSHR_MERGE:       1289
cpu0->cpu0_DTLB RFO          ACCESS:          0 HIT:          0 MISS:          0 MSHR_MERGE:          0
cpu0->cpu0_DTLB PREFETCH     ACCESS:          0 HIT:          0 MISS:          0 MSHR_MERGE:          0
cpu0->cpu0_DTLB WRITE        ACCESS:          0 HIT:          0 MISS:          0 MSHR_MERGE:          0
cpu0->cpu0_DTLB TRANSLATION  ACCESS:          0 HIT:          0 MISS:          0 MSHR_MERGE:          0
cpu0->cpu0_DTLB PREFETCH REQUESTED:          0 ISSUED:          0 USEFUL:          0 USELESS:          0
cpu0->cpu0_DTLB AVERAGE MISS LATENCY: 22.02 cycles
cpu0->LLC TOTAL        ACCESS:       3041 HIT:          6 MISS:       3035 MSHR_MERGE:          0
cpu0->LLC LOAD         ACCESS:       2422 HIT:          0 MISS:       2422 MSHR_MERGE:          0
cpu0->LLC RFO          ACCESS:         70 HIT:          0 MISS:         70 MSHR_MERGE:          0
cpu0->LLC PREFETCH     ACCESS:          0 HIT:          0 MISS:          0 MSHR_MERGE:          0
cpu0->LLC WRITE        ACCESS:          6 HIT:          6 MISS:          0 MSHR_MERGE:          0
cpu0->LLC TRANSLATION  ACCESS:        543 HIT:          0 MISS:        543 MSHR_MERGE:          0
cpu0->LLC PREFETCH REQUESTED:          0 ISSUED:          0 USEFUL:          0 USELESS:          0
cpu0->LLC AVERAGE MISS LATENCY: 172 cycles

DRAM Statistics

Channel 0 RQ ROW_BUFFER_HIT:         40
  ROW_BUFFER_MISS:       2995
  AVG DBUS CONGESTED CYCLE: 2.798
Channel 0 WQ ROW_BUFFER_HIT:          0
  ROW_BUFFER_MISS:          0
  FULL:          0
Channel 0 REFRESHES ISSUED:       1995
