[VMEM] WARNING: physical memory size is smaller than virtual memory size.

*** ChampSim Multicore Out-of-Order Simulator ***
Warmup Instructions: 10000000
Simulation Instructions: 50000000
Number of CPUs: 1
Page size: 4096

Off-chip DRAM Size: 16 GiB Channels: 1 Width: 64-bit Data Rate: 3205 MT/s
Heartbeat CPU 0 instructions: 10000001 cycles: 3398617 heartbeat IPC: 2.942 cumulative IPC: 2.942 (Simulation time: 00 hr 00 min 26 sec)
Warmup finished CPU 0 instructions: 10000001 cycles: 3398617 cumulative IPC: 2.942 (Simulation time: 00 hr 00 min 26 sec)
Warmup complete CPU 0 instructions: 10000001 cycles: 3398617 cumulative IPC: 2.942 (Simulation time: 00 hr 00 min 26 sec)
Heartbeat CPU 0 instructions: 20000002 cycles: 13054282 heartbeat IPC: 1.036 cumulative IPC: 1.036 (Simulation time: 00 hr 01 min 07 sec)
Heartbeat CPU 0 instructions: 30000005 cycles: 22460306 heartbeat IPC: 1.063 cumulative IPC: 1.049 (Simulation time: 00 hr 01 min 48 sec)
Heartbeat CPU 0 instructions: 40000006 cycles: 31875810 heartbeat IPC: 1.062 cumulative IPC: 1.053 (Simulation time: 00 hr 02 min 29 sec)
Heartbeat CPU 0 instructions: 50000009 cycles: 41252234 heartbeat IPC: 1.067 cumulative IPC: 1.057 (Simulation time: 00 hr 03 min 10 sec)
Simulation finished CPU 0 instructions: 50000003 cycles: 47323633 cumulative IPC: 1.057 (Simulation time: 00 hr 03 min 52 sec)
Simulation complete CPU 0 instructions: 50000003 cycles: 47323633 cumulative IPC: 1.057 (Simulation time: 00 hr 03 min 52 sec)

ChampSim completed all CPUs

=== Simulation ===
CPU 0 runs traces/631.deepsjeng_s-928B.champsimtrace.xz

Region of Interest Statistics

CPU 0 cumulative IPC: 1.057 instructions: 50000003 cycles: 47323633
CPU 0 Branch Prediction Accuracy: 89.29% MPKI: 15.91 Average ROB Occupancy at Mispredict: 28.03
Branch type MPKI
BRANCH_DIRECT_JUMP: 0.01754
BRANCH_INDIRECT: 0.01102
BRANCH_CONDITIONAL: 15.39
BRANCH_DIRECT_CALL: 0.01738
BRANCH_INDIRECT_CALL: 0
BRANCH_RETURN: 0.4758

cpu0->cpu0_STLB TOTAL        ACCESS:      13765 HIT:       4626 MISS:       9139 MSHR_MERGE:          0
cpu0->cpu0_STLB LOAD         ACCESS:      13765 HIT:       4626 MISS:       9139 MSHR_MERGE:          0
cpu0->cpu0_STLB RFO          ACCESS:          0 HIT:          0 MISS:          0 MSHR_MERGE:          0
cpu0->cpu0_STLB PREFETCH     ACCESS:          0 HIT:          0 MISS:          0 MSHR_MERGE:          0
cpu0->cpu0_STLB WRITE        ACCESS:          0 HIT:          0 MISS:          0 MSHR_MERGE:          0
cpu0->cpu0_STLB TRANSLATION  ACCESS:          0 HIT:          0 MISS:          0 MSHR_MERGE:          0
cpu0->cpu0_STLB PREFETCH REQUESTED:          0 ISSUED:          0 USEFUL:          0 USELESS:          0
cpu0->cpu0_STLB AVERAGE MISS LATENCY: 850.3 cycles
cpu0->cpu0_L2C TOTAL        ACCESS:     144334 HIT:     104682 MISS:      39652 MSHR_MERGE:          0
cpu0->cpu0_L2C LOAD         ACCESS:      75559 HIT:      60212 MISS:      15347 MSHR_MERGE:          0
cpu0->cpu0_L2C RFO          ACCESS:      14776 HIT:      13835 MISS:        941 MSHR_MERGE:          0
cpu0->cpu0_L2C PREFETCH     ACCESS:          0 HIT:          0 MISS:          0 MSHR_MERGE:          0
cpu0->cpu0_L2C WRITE        ACCESS:      27185 HIT:      27138 MISS:         47 MSHR_MERGE:          0
cpu0->cpu0_L2C TRANSLATION  ACCESS:      26814 HIT:       3497 MISS:      23317 MSHR_MERGE:          0
cpu0->cpu0_L2C PREFETCH REQUESTED:          0 ISSUED:          0 USEFUL:          0 USELESS:          0
cpu0->cpu0_L2C AVERAGE MISS LATENCY: 153.7 cycles
cpu0->cpu0_L1I TOTAL        ACCESS:    5948198 HIT:    5890831 MISS:      57367 MSHR_MERGE:      12182
cpu0->cpu0_L1I LOAD         ACCESS:    5948198 HIT:    5890831 MISS:      57367 MSHR_MERGE:      12182
cpu0->cpu0_L1I RFO          ACCESS:          0 HIT:          0 MISS:          0 MSHR_MERGE:          0
cpu0->cpu0_L1I PREFETCH     ACCESS:          0 HIT:          0 MISS:          0 MSHR_MERGE:          0
cpu0->cpu0_L1I WRITE        ACCESS:          0 HIT:          0 MISS:          0 MSHR_MERGE:          0
cpu0->cpu0_L1I TRANSLATION  ACCESS:          0 HIT:          0 MISS:          0 MSHR_MERGE:          0
cpu0->cpu0_L1I PREFETCH REQUESTED:          0 ISSUED:          0 USEFUL:          0 USELESS:          0
cpu0->cpu0_L1I AVERAGE MISS LATENCY: 7.292 cycles
cpu0->cpu0_L1D TOTAL        ACCESS:   15186594 HIT:   15078489 MISS:     108105 MSHR_MERGE:      36138
cpu0->cpu0_L1D LOAD         ACCESS:    9188105 HIT:    9144493 MISS:      43612 MSHR_MERGE:      13235
cpu0->cpu0_L1D RFO          ACCESS:          0 HIT:          0 MISS:          0 MSHR_MERGE:          0
cpu0->cpu0_L1D PREFETCH     ACCESS:          0 HIT:          0 MISS:          0 MSHR_MERGE:          0
cpu0->cpu0_L1D WRITE        ACCESS:    5970936 HIT:    5933316 MISS:      37620 MSHR_MERGE:      22844
cpu0->cpu0_L1D TRANSLATION  ACCESS:      27553 HIT:        680 MISS:      26873 MSHR_MERGE:         59
cpu0->cpu0_L1D PREFETCH REQUESTED:          0 ISSUED:          0 USEFUL:          0 USELESS:          0
cpu0->cpu0_L1D AVERAGE MISS LATENCY: 93.1 cycles
cpu0->cpu0_ITLB TOTAL        ACCESS:    5075812 HIT:    5075812 MISS:          0 MSHR_MERGE:          0
cpu0->cpu0_ITLB LOAD         ACCESS:    5075812 HIT:    5075812 MISS:          0 MSHR_MERGE:          0
cpu0->cpu0_ITLB RFO          ACCESS:          0 HIT:          0 MISS:          0 MSHR_MERGE:          0
cpu0->cpu0_ITLB PREFETCH     ACCESS:          0 HIT:          0 MISS:          0 MSHR_MERGE:          0
cpu0->cpu0_ITLB WRITE        ACCESS:          0 HIT:          0 MISS:          0 MSHR_MERGE:          0
cpu0->cpu0_ITLB TRANSLATION  ACCESS:          0 HIT:          0 MISS:          0 MSHR_MERGE:          0
cpu0->cpu0_ITLB PREFETCH REQUESTED:          0 ISSUED:          0 USEFUL:          0 USELESS:          0
cpu0->cpu0_ITLB AVERAGE MISS LATENCY: - cycles
cpu0->cpu0_DTLB TOTAL        ACCESS:   14257761 HIT:   14228736 MISS:      29025 MSHR_MERGE:      15260
cpu0->cpu0_DTLB LOAD         ACCESS:   14257761 HIT:   14228736 MISS:      29025 MSHR_MERGE:      15260
cpu0->cpu0_DTLB RFO          ACCESS:          0 HIT:          0 MISS:          0 MSHR_MERGE:          0
cpu0->cpu0_DTLB PREFETCH     ACCESS:          0 HIT:          0 MISS:          0 MSHR_MERGE:          0
cpu0->cpu0_DTLB WRITE        ACCESS:          0 HIT:          0 MISS:          0 MSHR_MERGE:          0
cpu0->cpu0_DTLB TRANSLATION  ACCESS:          0 HIT:          0 MISS:          0 MSHR_MERGE:          0
cpu0->cpu0_DTLB PREFETCH REQUESTED:          0 ISSUED:          0 USEFUL:          0 USELESS:          0
cpu0->cpu0_DTLB AVERAGE MISS LATENCY: 570.2 cycles
cpu0->LLC TOTAL        ACCESS:      50419 HIT:      16401 MISS:      34018 MSHR_MERGE:          0
cpu0->LLC LOAD         ACCESS:      15347 HIT:       1054 MISS:      14293 MSHR_MERGE:          0
cpu0->LLC RFO          ACCESS:        941 HIT:        555 MISS:        386 MSHR_MERGE:          0
cpu0->LLC PREFETCH     ACCESS:          0 HIT:          0 MISS:          0 MSHR_MERGE:          0
cpu0->LLC WRITE        ACCESS:      10814 HIT:      10765 MISS:         49 MSHR_MERGE:          0
cpu0->LLC TRANSLATION  ACCESS:      23317 HIT:       4027 MISS:      19290 MSHR_MERGE:          0
cpu0->LLC PREFETCH REQUESTED:          0 ISSUED:          0 USEFUL:          0 USELESS:          0
cpu0->LLC AVERAGE MISS LATENCY: 160.7 cycles

DRAM Statistics

Channel 0 RQ ROW_BUFFER_HIT:         24
  ROW_BUFFER_MISS:      33945
  AVG DBUS CONGESTED CYCLE: 5.885
Channel 0 WQ ROW_BUFFER_HIT:         55
  ROW_BUFFER_MISS:       3258
  FULL:          0
Channel 0 REFRESHES ISSUED:       3943
