[VMEM] WARNING: physical memory size is smaller than virtual memory size.

*** ChampSim Multicore Out-of-Order Simulator ***
Warmup Instructions: 10000000
Simulation Instructions: 50000000
Number of CPUs: 1
Page size: 4096

Off-chip DRAM Size: 16 GiB Channels: 1 Width: 64-bit Data Rate: 3205 MT/s
Heartbeat CPU 0 instructions: 10000000 cycles: 2627408 heartbeat IPC: 3.806 cumulative IPC: 3.806 (Simulation time: 00 hr 00 min 20 sec)
Warmup finished CPU 0 instructions: 10000000 cycles: 2627408 cumulative IPC: 3.806 (Simulation time: 00 hr 00 min 20 sec)
Warmup complete CPU 0 instructions: 10000000 cycles: 2627408 cumulative IPC: 3.806 (Simulation time: 00 hr 00 min 20 sec)
Heartbeat CPU 0 instructions: 20000003 cycles: 16263976 heartbeat IPC: 0.7333 cumulative IPC: 0.7333 (Simulation time: 00 hr 01 min 17 sec)
Heartbeat CPU 0 instructions: 30000004 cycles: 25668143 heartbeat IPC: 1.063 cumulative IPC: 0.868 (Simulation time: 00 hr 01 min 57 sec)
Heartbeat CPU 0 instructions: 40000004 cycles: 34616269 heartbeat IPC: 1.118 cumulative IPC: 0.9378 (Simulation time: 00 hr 02 min 34 sec)
Heartbeat CPU 0 instructions: 50000007 cycles: 43477981 heartbeat IPC: 1.128 cumulative IPC: 0.9792 (Simulation time: 00 hr 03 min 12 sec)
Simulation finished CPU 0 instructions: 50000000 cycles: 49823205 cumulative IPC: 1.004 (Simulation time: 00 hr 03 min 50 sec)
Simulation complete CPU 0 instructions: 50000000 cycles: 49823205 cumulative IPC: 1.004 (Simulation time: 00 hr 03 min 50 sec)

ChampSim completed all CPUs

=== Simulation ===
CPU 0 runs traces/641.leela_s-149B.champsimtrace.xz

Region of Interest Statistics

CPU 0 cumulative IPC: 1.004 instructions: 50000000 cycles: 49823205
CPU 0 Branch Prediction Accuracy: 89.71% MPKI: 17.41 Average ROB Occupancy at Mispredict: 23.5
Branch type MPKI
BRANCH_DIRECT_JUMP: 0.1049
BRANCH_INDIRECT: 0.0134
BRANCH_CONDITIONAL: 17.25
BRANCH_DIRECT_CALL: 0.00596
BRANCH_INDIRECT_CALL: 0.0036
BRANCH_RETURN: 0.0321

cpu0->cpu0_STLB TOTAL        ACCESS:      20369 HIT:      19819 MISS:        550 MSHR_MERGE:          0
cpu0->cpu0_STLB LOAD         ACCESS:      20369 HIT:      19819 MISS:        550 MSHR_MERGE:          0
cpu0->cpu0_STLB RFO          ACCESS:          0 HIT:          0 MISS:          0 MSHR_MERGE:          0
cpu0->cpu0_STLB PREFETCH     ACCESS:          0 HIT:          0 MISS:          0 MSHR_MERGE:          0
cpu0->cpu0_STLB WRITE        ACCESS:          0 HIT:          0 MISS:          0 MSHR_MERGE:          0
cpu0->cpu0_STLB TRANSLATION  ACCESS:          0 HIT:          0 MISS:          0 MSHR_MERGE:          0
cpu0->cpu0_STLB PREFETCH REQUESTED:          0 ISSUED:          0 USEFUL:          0 USELESS:          0
cpu0->cpu0_STLB AVERAGE MISS LATENCY: 736.7 cycles
cpu0->cpu0_L2C TOTAL        ACCESS:     308695 HIT:     209055 MISS:      99640 MSHR_MERGE:          0
cpu0->cpu0_L2C LOAD         ACCESS:     137387 HIT:      77689 MISS:      59698 MSHR_MERGE:          0
cpu0->cpu0_L2C RFO          ACCESS:      66589 HIT:      27559 MISS:      39030 MSHR_MERGE:          0
cpu0->cpu0_L2C PREFETCH     ACCESS:          0 HIT:          0 MISS:          0 MSHR_MERGE:          0
cpu0->cpu0_L2C WRITE        ACCESS:     103825 HIT:     103802 MISS:         23 MSHR_MERGE:          0
cpu0->cpu0_L2C TRANSLATION  ACCESS:        894 HIT:          5 MISS:        889 MSHR_MERGE:          0
cpu0->cpu0_L2C PREFETCH REQUESTED:          0 ISSUED:          0 USEFUL:          0 USELESS:          0
cpu0->cpu0_L2C AVERAGE MISS LATENCY: 64.62 cycles
cpu0->cpu0_L1I TOTAL        ACCESS:    5794484 HIT:    5773881 MISS:      20603 MSHR_MERGE:       8051
cpu0->cpu0_L1I LOAD         ACCESS:    5794484 HIT:    5773881 MISS:      20603 MSHR_MERGE:       8051
cpu0->cpu0_L1I RFO          ACCESS:          0 HIT:          0 MISS:          0 MSHR_MERGE:          0
cpu0->cpu0_L1I PREFETCH     ACCESS:          0 HIT:          0 MISS:          0 MSHR_MERGE:          0
cpu0->cpu0_L1I WRITE        ACCESS:          0 HIT:          0 MISS:          0 MSHR_MERGE:          0
cpu0->cpu0_L1I TRANSLATION  ACCESS:          0 HIT:          0 MISS:          0 MSHR_MERGE:          0
cpu0->cpu0_L1I PREFETCH REQUESTED:          0 ISSUED:          0 USEFUL:          0 USELESS:          0
cpu0->cpu0_L1I AVERAGE MISS LATENCY: 20.6 cycles
cpu0->cpu0_L1D TOTAL        ACCESS:   15757211 HIT:   15291661 MISS:     465550 MSHR_MERGE:     273231
cpu0->cpu0_L1D LOAD         ACCESS:    9148348 HIT:    8964277 MISS:     184071 MSHR_MERGE:      59235
cpu0->cpu0_L1D RFO          ACCESS:          0 HIT:          0 MISS:          0 MSHR_MERGE:          0
cpu0->cpu0_L1D PREFETCH     ACCESS:          0 HIT:          0 MISS:          0 MSHR_MERGE:          0
cpu0->cpu0_L1D WRITE        ACCESS:    6607762 HIT:    6327177 MISS:     280585 MSHR_MERGE:     213996
cpu0->cpu0_L1D TRANSLATION  ACCESS:       1101 HIT:        207 MISS:        894 MSHR_MERGE:          0
cpu0->cpu0_L1D PREFETCH REQUESTED:          0 ISSUED:          0 USEFUL:          0 USELESS:          0
cpu0->cpu0_L1D AVERAGE MISS LATENCY: 41.2 cycles
cpu0->cpu0_ITLB TOTAL        ACCESS:    5173866 HIT:    5173268 MISS:        598 MSHR_MERGE:        312
cpu0->cpu0_ITLB LOAD         ACCESS:    5173866 HIT:    5173268 MISS:        598 MSHR_MERGE:        312
cpu0->cpu0_ITLB RFO          ACCESS:          0 HIT:          0 MISS:          0 MSHR_MERGE:          0
cpu0->cpu0_ITLB PREFETCH     ACCESS:          0 HIT:          0 MISS:          0 MSHR_MERGE:          0
cpu0->cpu0_ITLB WRITE        ACCESS:          0 HIT:          0 MISS:          0 MSHR_MERGE:          0
cpu0->cpu0_ITLB TRANSLATION  ACCESS:          0 HIT:          0 MISS:          0 MSHR_MERGE:          0
cpu0->cpu0_ITLB PREFETCH REQUESTED:          0 ISSUED:          0 USEFUL:          0 USELESS:          0
cpu0->cpu0_ITLB AVERAGE MISS LATENCY: 119.7 cycles
cpu0->cpu0_DTLB TOTAL        ACCESS:   14927112 HIT:   14901042 MISS:      26070 MSHR_MERGE:       5987
cpu0->cpu0_DTLB LOAD         ACCESS:   14927112 HIT:   14901042 MISS:      26070 MSHR_MERGE:       5987
cpu0->cpu0_DTLB RFO          ACCESS:          0 HIT:          0 MISS:          0 MSHR_MERGE:          0
cpu0->cpu0_DTLB PREFETCH     ACCESS:          0 HIT:          0 MISS:          0 MSHR_MERGE:          0
cpu0->cpu0_DTLB WRITE        ACCESS:          0 HIT:          0 MISS:          0 MSHR_MERGE:          0
cpu0->cpu0_DTLB TRANSLATION  ACCESS:          0 HIT:          0 MISS:          0 MSHR_MERGE:          0
cpu0->cpu0_DTLB PREFETCH REQUESTED:          0 ISSUED:          0 USEFUL:          0 USELESS:          0
cpu0->cpu0_DTLB AVERAGE MISS LATENCY: 23.57 cycles
cpu0->LLC TOTAL        ACCESS:     161490 HIT:     133137 MISS:      28353 MSHR_MERGE:          0
cpu0->LLC LOAD         ACCESS:      59698 HIT:      40702 MISS:      18996 MSHR_MERGE:          0
cpu0->LLC RFO          ACCESS:      39030 HIT:      30559 MISS:       8471 MSHR_MERGE:          0
cpu0->LLC PREFETCH     ACCESS:          0 HIT:          0 MISS:          0 MSHR_MERGE:          0
cpu0->LLC WRITE        ACCESS:      61873 HIT:      61871 MISS:          2 MSHR_MERGE:          0
cpu0->LLC TRANSLATION  ACCESS:        889 HIT:          5 MISS:        884 MSHR_MERGE:          0
cpu0->LLC PREFETCH REQUESTED:          0 ISSUED:          0 USEFUL:          0 USELESS:          0
cpu0->LLC AVERAGE MISS LATENCY: 173.4 cycles

DRAM Statistics

Channel 0 RQ ROW_BUFFER_HIT:       2690
  ROW_BUFFER_MISS:      25644
  AVG DBUS CONGESTED CYCLE: 13.95
Channel 0 WQ ROW_BUFFER_HIT:        518
  ROW_BUFFER_MISS:       2244
  FULL:          0
Channel 0 REFRESHES ISSUED:       4152
