[VMEM] WARNING: physical memory size is smaller than virtual memory size.

*** ChampSim Multicore Out-of-Order Simulator ***
Warmup Instructions: 10000000
Simulation Instructions: 50000000
Number of CPUs: 1
Page size: 4096

Off-chip DRAM Size: 16 GiB Channels: 1 Width: 64-bit Data Rate: 3205 MT/s
Heartbeat CPU 0 instructions: 10000000 cycles: 2862851 heartbeat IPC: 3.493 cumulative IPC: 3.493 (Simulation time: 00 hr 00 min 20 sec)
Warmup finished CPU 0 instructions: 10000000 cycles: 2862851 cumulative IPC: 3.493 (Simulation time: 00 hr 00 min 20 sec)
Warmup complete CPU 0 instructions: 10000000 cycles: 2862851 cumulative IPC: 3.493 (Simulation time: 00 hr 00 min 20 sec)
Heartbeat CPU 0 instructions: 20000000 cycles: 10078607 heartbeat IPC: 1.386 cumulative IPC: 1.386 (Simulation time: 00 hr 00 min 56 sec)
Heartbeat CPU 0 instructions: 30000002 cycles: 19887969 heartbeat IPC: 1.019 cumulative IPC: 1.175 (Simulation time: 00 hr 01 min 43 sec)
Heartbeat CPU 0 instructions: 40000004 cycles: 28013545 heartbeat IPC: 1.231 cumulative IPC: 1.193 (Simulation time: 00 hr 02 min 23 sec)
Heartbeat CPU 0 instructions: 50000006 cycles: 37188966 heartbeat IPC: 1.09 cumulative IPC: 1.165 (Simulation time: 00 hr 03 min 07 sec)
Simulation finished CPU 0 instructions: 50000003 cycles: 43835980 cumulative IPC: 1.141 (Simulation time: 00 hr 03 min 53 sec)
Simulation complete CPU 0 instructions: 50000003 cycles: 43835980 cumulative IPC: 1.141 (Simulation time: 00 hr 03 min 53 sec)

ChampSim completed all CPUs

=== Simulation ===
CPU 0 runs traces/627.cam4_s-490B.champsimtrace.xz

Region of Interest Statistics

CPU 0 cumulative IPC: 1.141 instructions: 50000003 cycles: 43835980
CPU 0 Branch Prediction Accuracy: 95.05% MPKI: 4.785 Average ROB Occupancy at Mispredict: 71.38
Branch type MPKI
BRANCH_DIRECT_JUMP: 0.00628
BRANCH_INDIRECT: 0
BRANCH_CONDITIONAL: 4.779
BRANCH_DIRECT_CALL: 0.0001
BRANCH_INDIRECT_CALL: 0
BRANCH_RETURN: 0.00014

cpu0->cpu0_STLB TOTAL        ACCESS:      15737 HIT:      14880 MISS:        857 MSHR_MERGE:          0
cpu0->cpu0_STLB LOAD         ACCESS:      15737 HIT:      14880 MISS:        857 MSHR_MERGE:          0
cpu0->cpu0_STLB RFO          ACCESS:          0 HIT:          0 MISS:          0 MSHR_MERGE:          0
cpu0->cpu0_STLB PREFETCH     ACCESS:          0 HIT:          0 MISS:          0 MSHR_MERGE:          0
cpu0->cpu0_STLB WRITE        ACCESS:          0 HIT:          0 MISS:          0 MSHR_MERGE:          0
cpu0->cpu0_STLB TRANSLATION  ACCESS:          0 HIT:          0 MISS:          0 MSHR_MERGE:          0
cpu0->cpu0_STLB PREFETCH REQUESTED:          0 ISSUED:          0 USEFUL:          0 USELESS:          0
cpu0->cpu0_STLB AVERAGE MISS LATENCY: 702.8 cycles
cpu0->cpu0_L2C TOTAL        ACCESS:    1299461 HIT:     690394 MISS:     609067 MSHR_MERGE:          0
cpu0->cpu0_L2C LOAD         ACCESS:     630686 HIT:     286756 MISS:     343930 MSHR_MERGE:          0
cpu0->cpu0_L2C RFO          ACCESS:     279564 HIT:      16095 MISS:     263469 MSHR_MERGE:          0
cpu0->cpu0_L2C PREFETCH     ACCESS:          0 HIT:          0 MISS:          0 MSHR_MERGE:          0
cpu0->cpu0_L2C WRITE        ACCESS:     388141 HIT:     387539 MISS:        602 MSHR_MERGE:          0
cpu0->cpu0_L2C TRANSLATION  ACCESS:       1070 HIT:          4 MISS:       1066 MSHR_MERGE:          0
cpu0->cpu0_L2C PREFETCH REQUESTED:          0 ISSUED:          0 USEFUL:          0 USELESS:          0
cpu0->cpu0_L2C AVERAGE MISS LATENCY: 120.8 cycles
cpu0->cpu0_L1I TOTAL        ACCESS:    3498270 HIT:    3495827 MISS:       2443 MSHR_MERGE:       1235
cpu0->cpu0_L1I LOAD         ACCESS:    3498270 HIT:    3495827 MISS:       2443 MSHR_MERGE:       1235
cpu0->cpu0_L1I RFO          ACCESS:          0 HIT:          0 MISS:          0 MSHR_MERGE:          0
cpu0->cpu0_L1I PREFETCH     ACCESS:          0 HIT:          0 MISS:          0 MSHR_MERGE:          0
cpu0->cpu0_L1I WRITE        ACCESS:          0 HIT:          0 MISS:          0 MSHR_MERGE:          0
cpu0->cpu0_L1I TRANSLATION  ACCESS:          0 HIT:          0 MISS:          0 MSHR_MERGE:          0
cpu0->cpu0_L1I PREFETCH REQUESTED:          0 ISSUED:          0 USEFUL:          0 USELESS:          0
cpu0->cpu0_L1I AVERAGE MISS LATENCY: 268.8 cycles
cpu0->cpu0_L1D TOTAL        ACCESS:    9928418 HIT:    7247621 MISS:    2680797 MSHR_MERGE:    1770684
cpu0->cpu0_L1D LOAD         ACCESS:    6618077 HIT:    5258158 MISS:    1359919 MSHR_MERGE:     730441
cpu0->cpu0_L1D RFO          ACCESS:          0 HIT:          0 MISS:          0 MSHR_MERGE:          0
cpu0->cpu0_L1D PREFETCH     ACCESS:          0 HIT:          0 MISS:          0 MSHR_MERGE:          0
cpu0->cpu0_L1D WRITE        ACCESS:    3308622 HIT:    1988815 MISS:    1319807 MSHR_MERGE:    1040242
cpu0->cpu0_L1D TRANSLATION  ACCESS:       1719 HIT:        648 MISS:       1071 MSHR_MERGE:          1
cpu0->cpu0_L1D PREFETCH REQUESTED:          0 ISSUED:          0 USEFUL:          0 USELESS:          0
cpu0->cpu0_L1D AVERAGE MISS LATENCY: 89.21 cycles
cpu0->cpu0_ITLB TOTAL        ACCESS:    3148504 HIT:    3148482 MISS:         22 MSHR_MERGE:         16
cpu0->cpu0_ITLB LOAD         ACCESS:    3148504 HIT:    3148482 MISS:         22 MSHR_MERGE:         16
cpu0->cpu0_ITLB RFO          ACCESS:          0 HIT:          0 MISS:          0 MSHR_MERGE:          0
cpu0->cpu0_ITLB PREFETCH     ACCESS:          0 HIT:          0 MISS:          0 MSHR_MERGE:          0
cpu0->cpu0_ITLB WRITE        ACCESS:          0 HIT:          0 MISS:          0 MSHR_MERGE:          0
cpu0->cpu0_ITLB TRANSLATION  ACCESS:          0 HIT:          0 MISS:          0 MSHR_MERGE:          0
cpu0->cpu0_ITLB PREFETCH REQUESTED:          0 ISSUED:          0 USEFUL:          0 USELESS:          0
cpu0->cpu0_ITLB AVERAGE MISS LATENCY: 815.2 cycles
cpu0->cpu0_DTLB TOTAL        ACCESS:    9623832 HIT:    9596152 MISS:      27680 MSHR_MERGE:      11949
cpu0->cpu0_DTLB LOAD         ACCESS:    9623832 HIT:    9596152 MISS:      27680 MSHR_MERGE:      11949
cpu0->cpu0_DTLB RFO          ACCESS:          0 HIT:          0 MISS:          0 MSHR_MERGE:          0
cpu0->cpu0_DTLB PREFETCH     ACCESS:          0 HIT:          0 MISS:          0 MSHR_MERGE:          0
cpu0->cpu0_DTLB WRITE        ACCESS:          0 HIT:          0 MISS:          0 MSHR_MERGE:          0
cpu0->cpu0_DTLB TRANSLATION  ACCESS:          0 HIT:          0 MISS:          0 MSHR_MERGE:          0
cpu0->cpu0_DTLB PREFETCH REQUESTED:          0 ISSUED:          0 USEFUL:          0 USELESS:          0
cpu0->cpu0_DTLB AVERAGE MISS LATENCY: 43.04 cycles
cpu0->LLC TOTAL        ACCESS:     926566 HIT:     688083 MISS:     238483 MSHR_MERGE:          0
cpu0->LLC LOAD         ACCESS:     343930 HIT:     239564 MISS:     104366 MSHR_MERGE:          0
cpu0->LLC RFO          ACCESS:     263468 HIT:     130425 MISS:     133043 MSHR_MERGE:          0
cpu0->LLC PREFETCH     ACCESS:          0 HIT:          0 MISS:          0 MSHR_MERGE:          0
cpu0->LLC WRITE        ACCESS:     318102 HIT:     318088 MISS:         14 MSHR_MERGE:          0
cpu0->LLC TRANSLATION  ACCESS:       1066 HIT:          6 MISS:       1060 MSHR_MERGE:          0
cpu0->LLC PREFETCH REQUESTED:          0 ISSUED:          0 USEFUL:          0 USELESS:          0
cpu0->LLC AVERAGE MISS LATENCY: 269.1 cycles

DRAM Statistics

Channel 0 RQ ROW_BUFFER_HIT:      13504
  ROW_BUFFER_MISS:     224628
  AVG DBUS CONGESTED CYCLE: 9.617
Channel 0 WQ ROW_BUFFER_HIT:      42700
  ROW_BUFFER_MISS:     139216
  FULL:          0
Channel 0 REFRESHES ISSUED:       3653
