[VMEM] WARNING: physical memory size is smaller than virtual memory size.

*** ChampSim Multicore Out-of-Order Simulator ***
Warmup Instructions: 10000000
Simulation Instructions: 50000000
Number of CPUs: 1
Page size: 4096

Off-chip DRAM Size: 16 GiB Channels: 1 Width: 64-bit Data Rate: 3205 MT/s
Heartbeat CPU 0 instructions: 10000003 cycles: 3488161 heartbeat IPC: 2.867 cumulative IPC: 2.867 (Simulation time: 00 hr 00 min 27 sec)
Warmup finished CPU 0 instructions: 10000003 cycles: 3488161 cumulative IPC: 2.867 (Simulation time: 00 hr 00 min 27 sec)
Warmup complete CPU 0 instructions: 10000003 cycles: 3488161 cumulative IPC: 2.867 (Simulation time: 00 hr 00 min 27 sec)
Heartbeat CPU 0 instructions: 20000004 cycles: 45511627 heartbeat IPC: 0.238 cumulative IPC: 0.238 (Simulation time: 00 hr 02 min 53 sec)
Heartbeat CPU 0 instructions: 30000004 cycles: 87435577 heartbeat IPC: 0.2385 cumulative IPC: 0.2382 (Simulation time: 00 hr 05 min 19 sec)
Heartbeat CPU 0 instructions: 40000005 cycles: 129422796 heartbeat IPC: 0.2382 cumulative IPC: 0.2382 (Simulation time: 00 hr 07 min 46 sec)
Heartbeat CPU 0 instructions: 50000009 cycles: 171388742 heartbeat IPC: 0.2383 cumulative IPC: 0.2382 (Simulation time: 00 hr 10 min 12 sec)
Simulation finished CPU 0 instructions: 50000004 cycles: 209871737 cumulative IPC: 0.2382 (Simulation time: 00 hr 12 min 36 sec)
Simulation complete CPU 0 instructions: 50000004 cycles: 209871737 cumulative IPC: 0.2382 (Simulation time: 00 hr 12 min 36 sec)

ChampSim completed all CPUs

=== Simulation ===
CPU 0 runs traces/602.gcc_s-1850B.champsimtrace.xz

Region of Interest Statistics

CPU 0 cumulative IPC: 0.2382 instructions: 50000004 cycles: 209871737
CPU 0 Branch Prediction Accuracy: 92.27% MPKI: 19.82 Average ROB Occupancy at Mispredict: 28.56
Branch type MPKI
BRANCH_DIRECT_JUMP: 0.01114
BRANCH_INDIRECT: 0
BRANCH_CONDITIONAL: 19.81
BRANCH_DIRECT_CALL: 0
BRANCH_INDIRECT_CALL: 0
BRANCH_RETURN: 0

cpu0->cpu0_STLB TOTAL        ACCESS:      16343 HIT:       1124 MISS:      15219 MSHR_MERGE:          0
cpu0->cpu0_STLB LOAD         ACCESS:      16343 HIT:       1124 MISS:      15219 MSHR_MERGE:          0
cpu0->cpu0_STLB RFO          ACCESS:          0 HIT:          0 MISS:          0 MSHR_MERGE:          0
cpu0->cpu0_STLB PREFETCH     ACCESS:          0 HIT:          0 MISS:          0 MSHR_MERGE:          0
cpu0->cpu0_STLB WRITE        ACCESS:          0 HIT:          0 MISS:          0 MSHR_MERGE:          0
cpu0->cpu0_STLB TRANSLATION  ACCESS:          0 HIT:          0 MISS:          0 MSHR_MERGE:          0
cpu0->cpu0_STLB PREFETCH REQUESTED:          0 ISSUED:          0 USEFUL:          0 USELESS:          0
cpu0->cpu0_STLB AVERAGE MISS LATENCY: 669.8 cycles
cpu0->cpu0_L2C TOTAL        ACCESS:    1229327 HIT:     321021 MISS:     908306 MSHR_MERGE:          0
cpu0->cpu0_L2C LOAD         ACCESS:    1206989 HIT:     317275 MISS:     889714 MSHR_MERGE:          0
cpu0->cpu0_L2C RFO          ACCESS:        396 HIT:          0 MISS:        396 MSHR_MERGE:          0
cpu0->cpu0_L2C PREFETCH     ACCESS:          0 HIT:          0 MISS:          0 MSHR_MERGE:          0
cpu0->cpu0_L2C WRITE        ACCESS:       3153 HIT:       3153 MISS:          0 MSHR_MERGE:          0
cpu0->cpu0_L2C TRANSLATION  ACCESS:      18789 HIT:        593 MISS:      18196 MSHR_MERGE:          0
cpu0->cpu0_L2C PREFETCH REQUESTED:          0 ISSUED:          0 USEFUL:          0 USELESS:          0
cpu0->cpu0_L2C AVERAGE MISS LATENCY: 161.1 cycles
cpu0->cpu0_L1I TOTAL        ACCESS:        354 HIT:        354 MISS:          0 MSHR_MERGE:          0
cpu0->cpu0_L1I LOAD         ACCESS:        354 HIT:        354 MISS:          0 MSHR_MERGE:          0
cpu0->cpu0_L1I RFO          ACCESS:          0 HIT:          0 MISS:          0 MSHR_MERGE:          0
cpu0->cpu0_L1I PREFETCH     ACCESS:          0 HIT:          0 MISS:          0 MSHR_MERGE:          0
cpu0->cpu0_L1I WRITE        ACCESS:          0 HIT:          0 MISS:          0 MSHR_MERGE:          0
cpu0->cpu0_L1I TRANSLATION  ACCESS:          0 HIT:          0 MISS:          0 MSHR_MERGE:          0
cpu0->cpu0_L1I PREFETCH REQUESTED:          0 ISSUED:          0 USEFUL:          0 USELESS:          0
cpu0->cpu0_L1I AVERAGE MISS LATENCY: - cycles
cpu0->cpu0_L1D TOTAL        ACCESS:   14860391 HIT:   12777250 MISS:    2083141 MSHR_MERGE:     856968
cpu0->cpu0_L1D LOAD         ACCESS:   10514218 HIT:    8450265 MISS:    2063953 MSHR_MERGE:     856965
cpu0->cpu0_L1D RFO          ACCESS:          0 HIT:          0 MISS:          0 MSHR_MERGE:          0
cpu0->cpu0_L1D PREFETCH     ACCESS:          0 HIT:          0 MISS:          0 MSHR_MERGE:          0
cpu0->cpu0_L1D WRITE        ACCESS:    4315581 HIT:    4315185 MISS:        396 MSHR_MERGE:          0
cpu0->cpu0_L1D TRANSLATION  ACCESS:      30592 HIT:      11800 MISS:      18792 MSHR_MERGE:          3
cpu0->cpu0_L1D PREFETCH REQUESTED:          0 ISSUED:          0 USEFUL:          0 USELESS:          0
cpu0->cpu0_L1D AVERAGE MISS LATENCY: 128.1 cycles
cpu0->cpu0_ITLB TOTAL        ACCESS:        268 HIT:        268 MISS:          0 MSHR_MERGE:          0
cpu0->cpu0_ITLB LOAD         ACCESS:        268 HIT:        268 MISS:          0 MSHR_MERGE:          0
cpu0->cpu0_ITLB RFO          ACCESS:          0 HIT:          0 MISS:          0 MSHR_MERGE:          0
cpu0->cpu0_ITLB PREFETCH     ACCESS:          0 HIT:          0 MISS:          0 MSHR_MERGE:          0
cpu0->cpu0_ITLB WRITE        ACCESS:          0 HIT:          0 MISS:          0 MSHR_MERGE:          0
cpu0->cpu0_ITLB TRANSLATION  ACCESS:          0 HIT:          0 MISS:          0 MSHR_MERGE:          0
cpu0->cpu0_ITLB PREFETCH REQUESTED:          0 ISSUED:          0 USEFUL:          0 USELESS:          0
cpu0->cpu0_ITLB AVERAGE MISS LATENCY: - cycles
cpu0->cpu0_DTLB TOTAL        ACCESS:   14432905 HIT:   14402305 MISS:      30600 MSHR_MERGE:      14257
cpu0->cpu0_DTLB LOAD         ACCESS:   14432905 HIT:   14402305 MISS:      30600 MSHR_MERGE:      14257
cpu0->cpu0_DTLB RFO          ACCESS:          0 HIT:          0 MISS:          0 MSHR_MERGE:          0
cpu0->cpu0_DTLB PREFETCH     ACCESS:          0 HIT:          0 MISS:          0 MSHR_MERGE:          0
cpu0->cpu0_DTLB WRITE        ACCESS:          0 HIT:          0 MISS:          0 MSHR_MERGE:          0
cpu0->cpu0_DTLB TRANSLATION  ACCESS:          0 HIT:          0 MISS:          0 MSHR_MERGE:          0
cpu0->cpu0_DTLB PREFETCH REQUESTED:          0 ISSUED:          0 USEFUL:          0 USELESS:          0
cpu0->cpu0_DTLB AVERAGE MISS LATENCY: 629.6 cycles
cpu0->LLC TOTAL        ACCESS:     909565 HIT:       2560 MISS:     907005 MSHR_MERGE:          0
cpu0->LLC LOAD         ACCESS:     889714 HIT:       1216 MISS:     888498 MSHR_MERGE:          0
cpu0->LLC RFO          ACCESS:        396 HIT:          0 MISS:        396 MSHR_MERGE:          0
cpu0->LLC PREFETCH     ACCESS:          0 HIT:          0 MISS:          0 MSHR_MERGE:          0
cpu0->LLC WRITE        ACCESS:       1259 HIT:       1258 MISS:          1 MSHR_MERGE:          0
cpu0->LLC TRANSLATION  ACCESS:      18196 HIT:         86 MISS:      18110 MSHR_MERGE:          0
cpu0->LLC PREFETCH REQUESTED:          0 ISSUED:          0 USEFUL:          0 USELESS:          0
cpu0->LLC AVERAGE MISS LATENCY: 145.3 cycles

DRAM Statistics

Channel 0 RQ ROW_BUFFER_HIT:     206906
  ROW_BUFFER_MISS:     700098
  AVG DBUS CONGESTED CYCLE: 19.64
Channel 0 WQ ROW_BUFFER_HIT:        375
  ROW_BUFFER_MISS:        885
  FULL:          0
Channel 0 REFRESHES ISSUED:      17489
