[VMEM] WARNING: physical memory size is smaller than virtual memory size.

*** ChampSim Multicore Out-of-Order Simulator ***
Warmup Instructions: 10000000
Simulation Instructions: 50000000
Number of CPUs: 1
Page size: 4096

Off-chip DRAM Size: 16 GiB Channels: 1 Width: 64-bit Data Rate: 3205 MT/s
Heartbeat CPU 0 instructions: 10000000 cycles: 3547766 heartbeat IPC: 2.819 cumulative IPC: 2.819 (Simulation time: 00 hr 00 min 27 sec)
Warmup finished CPU 0 instructions: 10000000 cycles: 3547766 cumulative IPC: 2.819 (Simulation time: 00 hr 00 min 27 sec)
Warmup complete CPU 0 instructions: 10000000 cycles: 3547766 cumulative IPC: 2.819 (Simulation time: 00 hr 00 min 27 sec)
Heartbeat CPU 0 instructions: 20000004 cycles: 24917550 heartbeat IPC: 0.468 cumulative IPC: 0.468 (Simulation time: 00 hr 02 min 37 sec)
Heartbeat CPU 0 instructions: 30000008 cycles: 45885394 heartbeat IPC: 0.4769 cumulative IPC: 0.4724 (Simulation time: 00 hr 04 min 44 sec)
Heartbeat CPU 0 instructions: 40000010 cycles: 66005644 heartbeat IPC: 0.497 cumulative IPC: 0.4803 (Simulation time: 00 hr 06 min 45 sec)
Heartbeat CPU 0 instructions: 50000011 cycles: 85449755 heartbeat IPC: 0.5143 cumulative IPC: 0.4884 (Simulation time: 00 hr 08 min 42 sec)
Simulation finished CPU 0 instructions: 50000000 cycles: 100513478 cumulative IPC: 0.4974 (Simulation time: 00 hr 10 min 34 sec)
Simulation complete CPU 0 instructions: 50000000 cycles: 100513478 cumulative IPC: 0.4974 (Simulation time: 00 hr 10 min 34 sec)

ChampSim completed all CPUs

=== Simulation ===
CPU 0 runs traces/619.lbm_s-2676B.champsimtrace.xz

Region of Interest Statistics

CPU 0 cumulative IPC: 0.4974 instructions: 50000000 cycles: 100513478
CPU 0 Branch Prediction Accuracy: 95.94% MPKI: 0.6505 Average ROB Occupancy at Mispredict: 212.7
Branch type MPKI
BRANCH_DIRECT_JUMP: 0
BRANCH_INDIRECT: 0
BRANCH_CONDITIONAL: 0.6505
BRANCH_DIRECT_CALL: 0
BRANCH_INDIRECT_CALL: 0
BRANCH_RETURN: 0

cpu0->cpu0_STLB TOTAL        ACCESS:      58518 HIT:      26765 MISS:      31753 MSHR_MERGE:          0
cpu0->cpu0_STLB LOAD         ACCESS:      58518 HIT:      26765 MISS:      31753 MSHR_MERGE:          0
cpu0->cpu0_STLB RFO          ACCESS:          0 HIT:          0 MISS:          0 MSHR_MERGE:          0
cpu0->cpu0_STLB PREFETCH     ACCESS:          0 HIT:          0 MISS:          0 MSHR_MERGE:          0
cpu0->cpu0_STLB WRITE        ACCESS:          0 HIT:          0 MISS:          0 MSHR_MERGE:          0
cpu0->cpu0_STLB TRANSLATION  ACCESS:          0 HIT:          0 MISS:          0 MSHR_MERGE:          0
cpu0->cpu0_STLB PREFETCH REQUESTED:          0 ISSUED:          0 USEFUL:          0 USELESS:          0
cpu0->cpu0_STLB AVERAGE MISS LATENCY: 889.8 cycles
cpu0->cpu0_L2C TOTAL        ACCESS:    6272894 HIT:    4155749 MISS:    2117145 MSHR_MERGE:          0
cpu0->cpu0_L2C LOAD         ACCESS:     507944 HIT:         16 MISS:     507928 MSHR_MERGE:          0
cpu0->cpu0_L2C RFO          ACCESS:    2864573 HIT:    1291109 MISS:    1573464 MSHR_MERGE:          0
cpu0->cpu0_L2C PREFETCH     ACCESS:          0 HIT:          0 MISS:          0 MSHR_MERGE:          0
cpu0->cpu0_L2C WRITE        ACCESS:    2864624 HIT:    2864624 MISS:          0 MSHR_MERGE:          0
cpu0->cpu0_L2C TRANSLATION  ACCESS:      35753 HIT:          0 MISS:      35753 MSHR_MERGE:          0
cpu0->cpu0_L2C PREFETCH REQUESTED:          0 ISSUED:          0 USEFUL:          0 USELESS:          0
cpu0->cpu0_L2C AVERAGE MISS LATENCY: 473.4 cycles
cpu0->cpu0_L1I TOTAL        ACCESS:    8015006 HIT:    8015006 MISS:          0 MSHR_MERGE:          0
cpu0->cpu0_L1I LOAD         ACCESS:    8015006 HIT:    8015006 MISS:          0 MSHR_MERGE:          0
cpu0->cpu0_L1I RFO          ACCESS:          0 HIT:          0 MISS:          0 MSHR_MERGE:          0
cpu0->cpu0_L1I PREFETCH     ACCESS:          0 HIT:          0 MISS:          0 MSHR_MERGE:          0
cpu0->cpu0_L1I WRITE        ACCESS:          0 HIT:          0 MISS:          0 MSHR_MERGE:          0
cpu0->cpu0_L1I TRANSLATION  ACCESS:          0 HIT:          0 MISS:          0 MSHR_MERGE:          0
cpu0->cpu0_L1I PREFETCH REQUESTED:          0 ISSUED:          0 USEFUL:          0 USELESS:          0
cpu0->cpu0_L1I AVERAGE MISS LATENCY: - cycles
cpu0->cpu0_L1D TOTAL        ACCESS:   11864057 HIT:    7650237 MISS:    4213820 MSHR_MERGE:     805497
cpu0->cpu0_L1D LOAD         ACCESS:    3093336 HIT:    1908839 MISS:    1184497 MSHR_MERGE:     676553
cpu0->cpu0_L1D RFO          ACCESS:          0 HIT:          0 MISS:          0 MSHR_MERGE:          0
cpu0->cpu0_L1D PREFETCH     ACCESS:          0 HIT:          0 MISS:          0 MSHR_MERGE:          0
cpu0->cpu0_L1D WRITE        ACCESS:    8707183 HIT:    5713613 MISS:    2993570 MSHR_MERGE:     128944
cpu0->cpu0_L1D TRANSLATION  ACCESS:      63538 HIT:      27785 MISS:      35753 MSHR_MERGE:          0
cpu0->cpu0_L1D PREFETCH REQUESTED:          0 ISSUED:          0 USEFUL:          0 USELESS:          0
cpu0->cpu0_L1D AVERAGE MISS LATENCY: 303.6 cycles
cpu0->cpu0_ITLB TOTAL        ACCESS:    5967800 HIT:    5967800 MISS:          0 MSHR_MERGE:          0
cpu0->cpu0_ITLB LOAD         ACCESS:    5967800 HIT:    5967800 MISS:          0 MSHR_MERGE:          0
cpu0->cpu0_ITLB RFO          ACCESS:          0 HIT:          0 MISS:          0 MSHR_MERGE:          0
cpu0->cpu0_ITLB PREFETCH     ACCESS:          0 HIT:          0 MISS:          0 MSHR_MERGE:          0
cpu0->cpu0_ITLB WRITE        ACCESS:          0 HIT:          0 MISS:          0 MSHR_MERGE:          0
cpu0->cpu0_ITLB TRANSLATION  ACCESS:          0 HIT:          0 MISS:          0 MSHR_MERGE:          0
cpu0->cpu0_ITLB PREFETCH REQUESTED:          0 ISSUED:          0 USEFUL:          0 USELESS:          0
cpu0->cpu0_ITLB AVERAGE MISS LATENCY: - cycles
cpu0->cpu0_DTLB TOTAL        ACCESS:   11088160 HIT:   10921869 MISS:     166291 MSHR_MERGE:     107773
cpu0->cpu0_DTLB LOAD         ACCESS:   11088160 HIT:   10921869 MISS:     166291 MSHR_MERGE:     107773
cpu0->cpu0_DTLB RFO          ACCESS:          0 HIT:          0 MISS:          0 MSHR_MERGE:          0
cpu0->cpu0_DTLB PREFETCH     ACCESS:          0 HIT:          0 MISS:          0 MSHR_MERGE:          0
cpu0->cpu0_DTLB WRITE        ACCESS:          0 HIT:          0 MISS:          0 MSHR_MERGE:          0
cpu0->cpu0_DTLB TRANSLATION  ACCESS:          0 HIT:          0 MISS:          0 MSHR_MERGE:          0
cpu0->cpu0_DTLB PREFETCH REQUESTED:          0 ISSUED:          0 USEFUL:          0 USELESS:          0
cpu0->cpu0_DTLB AVERAGE MISS LATENCY: 488.4 cycles
cpu0->LLC TOTAL        ACCESS:    3690367 HIT:    1622986 MISS:    2067381 MSHR_MERGE:          0
cpu0->LLC LOAD         ACCESS:     507928 HIT:          2 MISS:     507926 MSHR_MERGE:          0
cpu0->LLC RFO          ACCESS:    1573462 HIT:      49765 MISS:    1523697 MSHR_MERGE:          0
cpu0->LLC PREFETCH     ACCESS:          0 HIT:          0 MISS:          0 MSHR_MERGE:          0
cpu0->LLC WRITE        ACCESS:    1573224 HIT:    1573219 MISS:          5 MSHR_MERGE:          0
cpu0->LLC TRANSLATION  ACCESS:      35753 HIT:          0 MISS:      35753 MSHR_MERGE:          0
cpu0->LLC PREFETCH REQUESTED:          0 ISSUED:          0 USEFUL:          0 USELESS:          0
cpu0->LLC AVERAGE MISS LATENCY: 468.3 cycles

DRAM Statistics

Channel 0 RQ ROW_BUFFER_HIT:     101554
  ROW_BUFFER_MISS:    1965822
  AVG DBUS CONGESTED CYCLE: 7.113
Channel 0 WQ ROW_BUFFER_HIT:     248797
  ROW_BUFFER_MISS:    1274911
  FULL:          0
Channel 0 REFRESHES ISSUED:       8376
