[VMEM] WARNING: physical memory size is smaller than virtual memory size.

*** ChampSim Multicore Out-of-Order Simulator ***
Warmup Instructions: 10000000
Simulation Instructions: 50000000
Number of CPUs: 1
Page size: 4096

Off-chip DRAM Size: 16 GiB Channels: 1 Width: 64-bit Data Rate: 3205 MT/s
Heartbeat CPU 0 instructions: 10000000 cycles: 2973839 heartbeat IPC: 3.363 cumulative IPC: 3.363 (Simulation time: 00 hr 00 min 22 sec)
Warmup finished CPU 0 instructions: 10000000 cycles: 2973839 cumulative IPC: 3.363 (Simulation time: 00 hr 00 min 22 sec)
Warmup complete CPU 0 instructions: 10000000 cycles: 2973839 cumulative IPC: 3.363 (Simulation time: 00 hr 00 min 22 sec)
Heartbeat CPU 0 instructions: 20000002 cycles: 28445724 heartbeat IPC: 0.3926 cumulative IPC: 0.3926 (Simulation time: 00 hr 02 min 29 sec)
Heartbeat CPU 0 instructions: 30000002 cycles: 53859879 heartbeat IPC: 0.3935 cumulative IPC: 0.393 (Simulation time: 00 hr 04 min 36 sec)
Heartbeat CPU 0 instructions: 40000006 cycles: 79292274 heartbeat IPC: 0.3932 cumulative IPC: 0.3931 (Simulation time: 00 hr 06 min 43 sec)
Heartbeat CPU 0 instructions: 50000006 cycles: 104792608 heartbeat IPC: 0.3922 cumulative IPC: 0.3929 (Simulation time: 00 hr 08 min 51 sec)
Simulation finished CPU 0 instructions: 50000004 cycles: 127230410 cumulative IPC: 0.393 (Simulation time: 00 hr 11 min 00 sec)
Simulation complete CPU 0 instructions: 50000004 cycles: 127230410 cumulative IPC: 0.393 (Simulation time: 00 hr 11 min 00 sec)

ChampSim completed all CPUs

=== Simulation ===
CPU 0 runs traces/649.fotonik3d_s-1176B.champsimtrace.xz

Region of Interest Statistics

CPU 0 cumulative IPC: 0.393 instructions: 50000004 cycles: 127230410
CPU 0 Branch Prediction Accuracy: 99.98% MPKI: 0.00438 Average ROB Occupancy at Mispredict: 352
Branch type MPKI
BRANCH_DIRECT_JUMP: 0
BRANCH_INDIRECT: 0
BRANCH_CONDITIONAL: 0.00438
BRANCH_DIRECT_CALL: 0
BRANCH_INDIRECT_CALL: 0
BRANCH_RETURN: 0

cpu0->cpu0_STLB TOTAL        ACCESS:      11681 HIT:       4818 MISS:       6863 MSHR_MERGE:          0
cpu0->cpu0_STLB LOAD         ACCESS:      11681 HIT:       4818 MISS:       6863 MSHR_MERGE:          0
cpu0->cpu0_STLB RFO          ACCESS:          0 HIT:          0 MISS:          0 MSHR_MERGE:          0
cpu0->cpu0_STLB PREFETCH     ACCESS:          0 HIT:          0 MISS:          0 MSHR_MERGE:          0
cpu0->cpu0_STLB WRITE        ACCESS:          0 HIT:          0 MISS:          0 MSHR_MERGE:          0
cpu0->cpu0_STLB TRANSLATION  ACCESS:          0 HIT:          0 MISS:          0 MSHR_MERGE:          0
cpu0->cpu0_STLB PREFETCH REQUESTED:          0 ISSUED:          0 USEFUL:          0 USELESS:          0
cpu0->cpu0_STLB AVERAGE MISS LATENCY: 664.1 cycles
cpu0->cpu0_L2C TOTAL        ACCESS:    1108870 HIT:     623024 MISS:     485846 MSHR_MERGE:          0
cpu0->cpu0_L2C LOAD         ACCESS:     660914 HIT:     182886 MISS:     478028 MSHR_MERGE:          0
cpu0->cpu0_L2C RFO          ACCESS:        763 HIT:        697 MISS:         66 MSHR_MERGE:          0
cpu0->cpu0_L2C PREFETCH     ACCESS:          0 HIT:          0 MISS:          0 MSHR_MERGE:          0
cpu0->cpu0_L2C WRITE        ACCESS:     439250 HIT:     439250 MISS:          0 MSHR_MERGE:          0
cpu0->cpu0_L2C TRANSLATION  ACCESS:       7943 HIT:        191 MISS:       7752 MSHR_MERGE:          0
cpu0->cpu0_L2C PREFETCH REQUESTED:          0 ISSUED:          0 USEFUL:          0 USELESS:          0
cpu0->cpu0_L2C AVERAGE MISS LATENCY: 222.3 cycles
cpu0->cpu0_L1I TOTAL        ACCESS:    8876728 HIT:    8876728 MISS:          0 MSHR_MERGE:          0
cpu0->cpu0_L1I LOAD         ACCESS:    8876728 HIT:    8876728 MISS:          0 MSHR_MERGE:          0
cpu0->cpu0_L1I RFO          ACCESS:          0 HIT:          0 MISS:          0 MSHR_MERGE:          0
cpu0->cpu0_L1I PREFETCH     ACCESS:          0 HIT:          0 MISS:          0 MSHR_MERGE:          0
cpu0->cpu0_L1I WRITE        ACCESS:          0 HIT:          0 MISS:          0 MSHR_MERGE:          0
cpu0->cpu0_L1I TRANSLATION  ACCESS:          0 HIT:          0 MISS:          0 MSHR_MERGE:          0
cpu0->cpu0_L1I PREFETCH REQUESTED:          0 ISSUED:          0 USEFUL:          0 USELESS:          0
cpu0->cpu0_L1I AVERAGE MISS LATENCY: - cycles
cpu0->cpu0_L1D TOTAL        ACCESS:   15404437 HIT:   12857776 MISS:    2546661 MSHR_MERGE:    1877041
cpu0->cpu0_L1D LOAD         ACCESS:   11880422 HIT:    9343993 MISS:    2536429 MSHR_MERGE:    1875515
cpu0->cpu0_L1D RFO          ACCESS:          0 HIT:          0 MISS:          0 MSHR_MERGE:          0
cpu0->cpu0_L1D PREFETCH     ACCESS:          0 HIT:          0 MISS:          0 MSHR_MERGE:          0
cpu0->cpu0_L1D WRITE        ACCESS:    3510267 HIT:    3507978 MISS:       2289 MSHR_MERGE:       1526
cpu0->cpu0_L1D TRANSLATION  ACCESS:      13748 HIT:       5805 MISS:       7943 MSHR_MERGE:          0
cpu0->cpu0_L1D PREFETCH REQUESTED:          0 ISSUED:          0 USEFUL:          0 USELESS:          0
cpu0->cpu0_L1D AVERAGE MISS LATENCY: 170 cycles
cpu0->cpu0_ITLB TOTAL        ACCESS:    7125858 HIT:    7125858 MISS:          0 MSHR_MERGE:          0
cpu0->cpu0_ITLB LOAD         ACCESS:    7125858 HIT:    7125858 MISS:          0 MSHR_MERGE:          0
cpu0->cpu0_ITLB RFO          ACCESS:          0 HIT:          0 MISS:          0 MSHR_MERGE:          0
cpu0->cpu0_ITLB PREFETCH     ACCESS:          0 HIT:          0 MISS:          0 MSHR_MERGE:          0
cpu0->cpu0_ITLB WRITE        ACCESS:          0 HIT:          0 MISS:          0 MSHR_MERGE:          0
cpu0->cpu0_ITLB TRANSLATION  ACCESS:          0 HIT:          0 MISS:          0 MSHR_MERGE:          0
cpu0->cpu0_ITLB PREFETCH REQUESTED:          0 ISSUED:          0 USEFUL:          0 USELESS:          0
cpu0->cpu0_ITLB AVERAGE MISS LATENCY: - cycles
cpu0->cpu0_DTLB TOTAL        ACCESS:   14171746 HIT:   14132104 MISS:      39642 MSHR_MERGE:      27961
cpu0->cpu0_DTLB LOAD         ACCESS:   14171746 HIT:   14132104 MISS:      39642 MSHR_MERGE:      27961
cpu0->cpu0_DTLB RFO          ACCESS:          0 HIT:          0 MISS:          0 MSHR_MERGE:          0
cpu0->cpu0_DTLB PREFETCH     ACCESS:          0 HIT:          0 MISS:          0 MSHR_MERGE:          0
cpu0->cpu0_DTLB WRITE        ACCESS:          0 HIT:          0 MISS:          0 MSHR_MERGE:          0
cpu0->cpu0_DTLB TRANSLATION  ACCESS:          0 HIT:          0 MISS:          0 MSHR_MERGE:          0
cpu0->cpu0_DTLB PREFETCH REQUESTED:          0 ISSUED:          0 USEFUL:          0 USELESS:          0
cpu0->cpu0_DTLB AVERAGE MISS LATENCY: 395.8 cycles
cpu0->LLC TOTAL        ACCESS:     924173 HIT:     470253 MISS:     453920 MSHR_MERGE:          0
cpu0->LLC LOAD         ACCESS:     478028 HIT:      31890 MISS:     446138 MSHR_MERGE:          0
cpu0->LLC RFO          ACCESS:         66 HIT:         65 MISS:          1 MSHR_MERGE:          0
cpu0->LLC PREFETCH     ACCESS:          0 HIT:          0 MISS:          0 MSHR_MERGE:          0
cpu0->LLC WRITE        ACCESS:     438327 HIT:     438297 MISS:         30 MSHR_MERGE:          0
cpu0->LLC TRANSLATION  ACCESS:       7752 HIT:          1 MISS:       7751 MSHR_MERGE:          0
cpu0->LLC PREFETCH REQUESTED:          0 ISSUED:          0 USEFUL:          0 USELESS:          0
cpu0->LLC AVERAGE MISS LATENCY: 220.8 cycles

DRAM Statistics

Channel 0 RQ ROW_BUFFER_HIT:       2758
  ROW_BUFFER_MISS:     451132
  AVG DBUS CONGESTED CYCLE: 9.706
Channel 0 WQ ROW_BUFFER_HIT:     177268
  ROW_BUFFER_MISS:     260588
  FULL:          0
Channel 0 REFRESHES ISSUED:      10603
