[VMEM] WARNING: physical memory size is smaller than virtual memory size.

*** ChampSim Multicore Out-of-Order Simulator ***
Warmup Instructions: 10000000
Simulation Instructions: 50000000
Number of CPUs: 1
Page size: 4096

Off-chip DRAM Size: 16 GiB Channels: 1 Width: 64-bit Data Rate: 3205 MT/s
Heartbeat CPU 0 instructions: 10000001 cycles: 2560982 heartbeat IPC: 3.905 cumulative IPC: 3.905 (Simulation time: 00 hr 00 min 19 sec)
Warmup finished CPU 0 instructions: 10000001 cycles: 2560982 cumulative IPC: 3.905 (Simulation time: 00 hr 00 min 19 sec)
Warmup complete CPU 0 instructions: 10000001 cycles: 2560982 cumulative IPC: 3.905 (Simulation time: 00 hr 00 min 19 sec)
Heartbeat CPU 0 instructions: 20000002 cycles: 9439849 heartbeat IPC: 1.454 cumulative IPC: 1.454 (Simulation time: 00 hr 00 min 49 sec)
Heartbeat CPU 0 instructions: 30000002 cycles: 16410071 heartbeat IPC: 1.435 cumulative IPC: 1.444 (Simulation time: 00 hr 01 min 19 sec)
Heartbeat CPU 0 instructions: 40000003 cycles: 23296312 heartbeat IPC: 1.452 cumulative IPC: 1.447 (Simulation time: 00 hr 01 min 49 sec)
Heartbeat CPU 0 instructions: 50000003 cycles: 30204178 heartbeat IPC: 1.448 cumulative IPC: 1.447 (Simulation time: 00 hr 02 min 19 sec)
Simulation finished CPU 0 instructions: 50000000 cycles: 34595110 cumulative IPC: 1.445 (Simulation time: 00 hr 02 min 49 sec)
Simulation complete CPU 0 instructions: 50000000 cycles: 34595110 cumulative IPC: 1.445 (Simulation time: 00 hr 02 min 49 sec)

ChampSim completed all CPUs

=== Simulation ===
CPU 0 runs traces/644.nab_s-12459B.champsimtrace.xz

Region of Interest Statistics

CPU 0 cumulative IPC: 1.445 instructions: 50000000 cycles: 34595110
CPU 0 Branch Prediction Accuracy: 91.84% MPKI: 11.66 Average ROB Occupancy at Mispredict: 45.93
Branch type MPKI
BRANCH_DIRECT_JUMP: 0.2759
BRANCH_INDIRECT: 0
BRANCH_CONDITIONAL: 11.39
BRANCH_DIRECT_CALL: 0
BRANCH_INDIRECT_CALL: 0
BRANCH_RETURN: 0

cpu0->cpu0_STLB TOTAL        ACCESS:      11014 HIT:      10874 MISS:        140 MSHR_MERGE:          0
cpu0->cpu0_STLB LOAD         ACCESS:      11014 HIT:      10874 MISS:        140 MSHR_MERGE:          0
cpu0->cpu0_STLB RFO          ACCESS:          0 HIT:          0 MISS:          0 MSHR_MERGE:          0
cpu0->cpu0_STLB PREFETCH     ACCESS:          0 HIT:          0 MISS:          0 MSHR_MERGE:          0
cpu0->cpu0_STLB WRITE        ACCESS:          0 HIT:          0 MISS:          0 MSHR_MERGE:          0
cpu0->cpu0_STLB TRANSLATION  ACCESS:          0 HIT:          0 MISS:          0 MSHR_MERGE:          0
cpu0->cpu0_STLB PREFETCH REQUESTED:          0 ISSUED:          0 USEFUL:          0 USELESS:          0
cpu0->cpu0_STLB AVERAGE MISS LATENCY: 697.5 cycles
cpu0->cpu0_L2C TOTAL        ACCESS:     332758 HIT:     282454 MISS:      50304 MSHR_MERGE:          0
cpu0->cpu0_L2C LOAD         ACCESS:     291499 HIT:     249086 MISS:      42413 MSHR_MERGE:          0
cpu0->cpu0_L2C RFO          ACCESS:      16419 HIT:       8734 MISS:       7685 MSHR_MERGE:          0
cpu0->cpu0_L2C PREFETCH     ACCESS:          0 HIT:          0 MISS:          0 MSHR_MERGE:          0
cpu0->cpu0_L2C WRITE        ACCESS:      24619 HIT:      24616 MISS:          3 MSHR_MERGE:          0
cpu0->cpu0_L2C TRANSLATION  ACCESS:        221 HIT:         18 MISS:        203 MSHR_MERGE:          0
cpu0->cpu0_L2C PREFETCH REQUESTED:          0 ISSUED:          0 USEFUL:          0 USELESS:          0
cpu0->cpu0_L2C AVERAGE MISS LATENCY: 44.48 cycles
cpu0->cpu0_L1I TOTAL        ACCESS:     125713 HIT:     125713 MISS:          0 MSHR_MERGE:          0
cpu0->cpu0_L1I LOAD         ACCESS:     125713 HIT:     125713 MISS:          0 MSHR_MERGE:          0
cpu0->cpu0_L1I RFO          ACCESS:          0 HIT:          0 MISS:          0 MSHR_MERGE:          0
cpu0->cpu0_L1I PREFETCH     ACCESS:          0 HIT:          0 MISS:          0 MSHR_MERGE:          0
cpu0->cpu0_L1I WRITE        ACCESS:          0 HIT:          0 MISS:          0 MSHR_MERGE:          0
cpu0->cpu0_L1I TRANSLATION  ACCESS:          0 HIT:          0 MISS:          0 MSHR_MERGE:          0
cpu0->cpu0_L1I PREFETCH REQUESTED:          0 ISSUED:          0 USEFUL:          0 USELESS:          0
cpu0->cpu0_L1I AVERAGE MISS LATENCY: - cycles
cpu0->cpu0_L1D TOTAL        ACCESS:   13844137 HIT:   13339387 MISS:     504750 MSHR_MERGE:     196611
cpu0->cpu0_L1D LOAD         ACCESS:    8837890 HIT:    8466910 MISS:     370980 MSHR_MERGE:      79481
cpu0->cpu0_L1D RFO          ACCESS:          0 HIT:          0 MISS:          0 MSHR_MERGE:          0
cpu0->cpu0_L1D PREFETCH     ACCESS:          0 HIT:          0 MISS:          0 MSHR_MERGE:          0
cpu0->cpu0_L1D WRITE        ACCESS:    5005967 HIT:    4872421 MISS:     133546 MSHR_MERGE:     117127
cpu0->cpu0_L1D TRANSLATION  ACCESS:        280 HIT:         56 MISS:        224 MSHR_MERGE:          3
cpu0->cpu0_L1D PREFETCH REQUESTED:          0 ISSUED:          0 USEFUL:          0 USELESS:          0
cpu0->cpu0_L1D AVERAGE MISS LATENCY: 15.43 cycles
cpu0->cpu0_ITLB TOTAL        ACCESS:     108729 HIT:     108729 MISS:          0 MSHR_MERGE:          0
cpu0->cpu0_ITLB LOAD         ACCESS:     108729 HIT:     108729 MISS:          0 MSHR_MERGE:          0
cpu0->cpu0_ITLB RFO          ACCESS:          0 HIT:          0 MISS:          0 MSHR_MERGE:          0
cpu0->cpu0_ITLB PREFETCH     ACCESS:          0 HIT:          0 MISS:          0 MSHR_MERGE:          0
cpu0->cpu0_ITLB WRITE        ACCESS:          0 HIT:          0 MISS:          0 MSHR_MERGE:          0
cpu0->cpu0_ITLB TRANSLATION  ACCESS:          0 HIT:          0 MISS:          0 MSHR_MERGE:          0
cpu0->cpu0_ITLB PREFETCH REQUESTED:          0 ISSUED:          0 USEFUL:          0 USELESS:          0
cpu0->cpu0_ITLB AVERAGE MISS LATENCY: - cycles
cpu0->cpu0_DTLB TOTAL        ACCESS:   13277587 HIT:   13262571 MISS:      15016 MSHR_MERGE:       4002
cpu0->cpu0_DTLB LOAD         ACCESS:   13277587 HIT:   13262571 MISS:      15016 MSHR_MERGE:       4002
cpu0->cpu0_DTLB RFO          ACCESS:          0 HIT:          0 MISS:          0 MSHR_MERGE:          0
cpu0->cpu0_DTLB PREFETCH     ACCESS:          0 HIT:          0 MISS:          0 MSHR_MERGE:          0
cpu0->cpu0_DTLB WRITE        ACCESS:          0 HIT:          0 MISS:          0 MSHR_MERGE:          0
cpu0->cpu0_DTLB TRANSLATION  ACCESS:          0 HIT:          0 MISS:          0 MSHR_MERGE:          0
cpu0->cpu0_DTLB PREFETCH REQUESTED:          0 ISSUED:          0 USEFUL:          0 USELESS:          0
cpu0->cpu0_DTLB AVERAGE MISS LATENCY: 13.88 cycles
cpu0->LLC TOTAL        ACCESS:      56960 HIT:      47563 MISS:       9397 MSHR_MERGE:          0
cpu0->LLC LOAD         ACCESS:      42413 HIT:      40777 MISS:       1636 MSHR_MERGE:          0
cpu0->LLC RFO          ACCESS:       7685 HIT:        111 MISS:       7574 MSHR_MERGE:          0
cpu0->LLC PREFETCH     ACCESS:          0 HIT:          0 MISS:          0 MSHR_MERGE:          0
cpu0->LLC WRITE        ACCESS:       6659 HIT:       6659 MISS:          0 MSHR_MERGE:          0
cpu0->LLC TRANSLATION  ACCESS:        203 HIT:         16 MISS:        187 MSHR_MERGE:          0
cpu0->LLC PREFETCH REQUESTED:          0 ISSUED:          0 USEFUL:          0 USELESS:          0
cpu0->LLC AVERAGE MISS LATENCY: 156.8 cycles

DRAM Statistics

Channel 0 RQ ROW_BUFFER_HIT:       2645
  ROW_BUFFER_MISS:       6752
  AVG DBUS CONGESTED CYCLE: 2.707
Channel 0 WQ ROW_BUFFER_HIT:          0
  ROW_BUFFER_MISS:          1
  FULL:          0
Channel 0 REFRESHES ISSUED:       2883
