[VMEM] WARNING: physical memory size is smaller than virtual memory size.

*** ChampSim Multicore Out-of-Order Simulator ***
Warmup Instructions: 10000000
Simulation Instructions: 50000000
Number of CPUs: 1
Page size: 4096

Off-chip DRAM Size: 16 GiB Channels: 1 Width: 64-bit Data Rate: 3205 MT/s
Heartbeat CPU 0 instructions: 10000000 cycles: 2700698 heartbeat IPC: 3.703 cumulative IPC: 3.703 (Simulation time: 00 hr 00 min 19 sec)
Warmup finished CPU 0 instructions: 10000000 cycles: 2700698 cumulative IPC: 3.703 (Simulation time: 00 hr 00 min 19 sec)
Warmup complete CPU 0 instructions: 10000000 cycles: 2700698 cumulative IPC: 3.703 (Simulation time: 00 hr 00 min 19 sec)
Heartbeat CPU 0 instructions: 20000000 cycles: 22666203 heartbeat IPC: 0.5009 cumulative IPC: 0.5009 (Simulation time: 00 hr 01 min 30 sec)
Heartbeat CPU 0 instructions: 30000001 cycles: 42643423 heartbeat IPC: 0.5006 cumulative IPC: 0.5007 (Simulation time: 00 hr 02 min 40 sec)
Heartbeat CPU 0 instructions: 40000002 cycles: 62647495 heartbeat IPC: 0.4999 cumulative IPC: 0.5004 (Simulation time: 00 hr 03 min 51 sec)
Heartbeat CPU 0 instructions: 50000003 cycles: 82714626 heartbeat IPC: 0.4983 cumulative IPC: 0.4999 (Simulation time: 00 hr 05 min 02 sec)
Simulation finished CPU 0 instructions: 50000000 cycles: 100211541 cumulative IPC: 0.4989 (Simulation time: 00 hr 06 min 13 sec)
Simulation complete CPU 0 instructions: 50000000 cycles: 100211541 cumulative IPC: 0.4989 (Simulation time: 00 hr 06 min 13 sec)

ChampSim completed all CPUs

=== Simulation ===
CPU 0 runs traces/623.xalancbmk_s-165B.champsimtrace.xz

Region of Interest Statistics

CPU 0 cumulative IPC: 0.4989 instructions: 50000000 cycles: 100211541
CPU 0 Branch Prediction Accuracy: 96.52% MPKI: 9.703 Average ROB Occupancy at Mispredict: 59.24
Branch type MPKI
BRANCH_DIRECT_JUMP: 0
BRANCH_INDIRECT: 0
BRANCH_CONDITIONAL: 9.703
BRANCH_DIRECT_CALL: 0
BRANCH_INDIRECT_CALL: 0
BRANCH_RETURN: 0

cpu0->cpu0_STLB TOTAL        ACCESS:      17753 HIT:      17693 MISS:         60 MSHR_MERGE:          0
cpu0->cpu0_STLB LOAD         ACCESS:      17753 HIT:      17693 MISS:         60 MSHR_MERGE:          0
cpu0->cpu0_STLB RFO          ACCESS:          0 HIT:          0 MISS:          0 MSHR_MERGE:          0
cpu0->cpu0_STLB PREFETCH     ACCESS:          0 HIT:          0 MISS:          0 MSHR_MERGE:          0
cpu0->cpu0_STLB WRITE        ACCESS:          0 HIT:          0 MISS:          0 MSHR_MERGE:          0
cpu0->cpu0_STLB TRANSLATION  ACCESS:          0 HIT:          0 MISS:          0 MSHR_MERGE:          0
cpu0->cpu0_STLB PREFETCH REQUESTED:          0 ISSUED:          0 USEFUL:          0 USELESS:          0
cpu0->cpu0_STLB AVERAGE MISS LATENCY: 808.7 cycles
cpu0->cpu0_L2C TOTAL        ACCESS:     951706 HIT:        658 MISS:     951048 MSHR_MERGE:          0
cpu0->cpu0_L2C LOAD         ACCESS:     950908 HIT:        246 MISS:     950662 MSHR_MERGE:          0
cpu0->cpu0_L2C RFO          ACCESS:        280 HIT:          0 MISS:        280 MSHR_MERGE:          0
cpu0->cpu0_L2C PREFETCH     ACCESS:          0 HIT:          0 MISS:          0 MSHR_MERGE:          0
cpu0->cpu0_L2C WRITE        ACCESS:        412 HIT:        412 MISS:          0 MSHR_MERGE:          0
cpu0->cpu0_L2C TRANSLATION  ACCESS:        106 HIT:          0 MISS:        106 MSHR_MERGE:          0
cpu0->cpu0_L2C PREFETCH REQUESTED:          0 ISSUED:          0 USEFUL:          0 USELESS:          0
cpu0->cpu0_L2C AVERAGE MISS LATENCY: 128.4 cycles
cpu0->cpu0_L1I TOTAL        ACCESS:       2127 HIT:       2127 MISS:          0 MSHR_MERGE:          0
cpu0->cpu0_L1I LOAD         ACCESS:       2127 HIT:       2127 MISS:          0 MSHR_MERGE:          0
cpu0->cpu0_L1I RFO          ACCESS:          0 HIT:          0 MISS:          0 MSHR_MERGE:          0
cpu0->cpu0_L1I PREFETCH     ACCESS:          0 HIT:          0 MISS:          0 MSHR_MERGE:          0
cpu0->cpu0_L1I WRITE        ACCESS:          0 HIT:          0 MISS:          0 MSHR_MERGE:          0
cpu0->cpu0_L1I TRANSLATION  ACCESS:          0 HIT:          0 MISS:          0 MSHR_MERGE:          0
cpu0->cpu0_L1I PREFETCH REQUESTED:          0 ISSUED:          0 USEFUL:          0 USELESS:          0
cpu0->cpu0_L1I AVERAGE MISS LATENCY: - cycles
cpu0->cpu0_L1D TOTAL        ACCESS:   14062102 HIT:   10847936 MISS:    3214166 MSHR_MERGE:    2262872
cpu0->cpu0_L1D LOAD         ACCESS:   13405742 HIT:   10193225 MISS:    3212517 MSHR_MERGE:    2261609
cpu0->cpu0_L1D RFO          ACCESS:          0 HIT:          0 MISS:          0 MSHR_MERGE:          0
cpu0->cpu0_L1D PREFETCH     ACCESS:          0 HIT:          0 MISS:          0 MSHR_MERGE:          0
cpu0->cpu0_L1D WRITE        ACCESS:     656240 HIT:     654701 MISS:       1539 MSHR_MERGE:       1259
cpu0->cpu0_L1D TRANSLATION  ACCESS:        120 HIT:         10 MISS:        110 MSHR_MERGE:          4
cpu0->cpu0_L1D PREFETCH REQUESTED:          0 ISSUED:          0 USEFUL:          0 USELESS:          0
cpu0->cpu0_L1D AVERAGE MISS LATENCY: 137.3 cycles
cpu0->cpu0_ITLB TOTAL        ACCESS:       1819 HIT:       1819 MISS:          0 MSHR_MERGE:          0
cpu0->cpu0_ITLB LOAD         ACCESS:       1819 HIT:       1819 MISS:          0 MSHR_MERGE:          0
cpu0->cpu0_ITLB RFO          ACCESS:          0 HIT:          0 MISS:          0 MSHR_MERGE:          0
cpu0->cpu0_ITLB PREFETCH     ACCESS:          0 HIT:          0 MISS:          0 MSHR_MERGE:          0
cpu0->cpu0_ITLB WRITE        ACCESS:          0 HIT:          0 MISS:          0 MSHR_MERGE:          0
cpu0->cpu0_ITLB TRANSLATION  ACCESS:          0 HIT:          0 MISS:          0 MSHR_MERGE:          0
cpu0->cpu0_ITLB PREFETCH REQUESTED:          0 ISSUED:          0 USEFUL:          0 USELESS:          0
cpu0->cpu0_ITLB AVERAGE MISS LATENCY: - cycles
cpu0->cpu0_DTLB TOTAL        ACCESS:   13968825 HIT:   13926508 MISS:      42317 MSHR_MERGE:      24564
cpu0->cpu0_DTLB LOAD         ACCESS:   13968825 HIT:   13926508 MISS:      42317 MSHR_MERGE:      24564
cpu0->cpu0_DTLB RFO          ACCESS:          0 HIT:          0 MISS:          0 MSHR_MERGE:          0
cpu0->cpu0_DTLB PREFETCH     ACCESS:          0 HIT:          0 MISS:          0 MSHR_MERGE:          0
cpu0->cpu0_DTLB WRITE        ACCESS:          0 HIT:          0 MISS:          0 MSHR_MERGE:          0
cpu0->cpu0_DTLB TRANSLATION  ACCESS:          0 HIT:          0 MISS:          0 MSHR_MERGE:          0
cpu0->cpu0_DTLB PREFETCH REQUESTED:          0 ISSUED:          0 USEFUL:          0 USELESS:          0
cpu0->cpu0_DTLB AVERAGE MISS LATENCY: 7.736 cycles
cpu0->LLC TOTAL        ACCESS:     951463 HIT:     266737 MISS:     684726 MSHR_MERGE:          0
cpu0->LLC LOAD         ACCESS:     950662 HIT:     266318 MISS:     684344 MSHR_MERGE:          0
cpu0->LLC RFO          ACCESS:        280 HIT:          0 MISS:        280 MSHR_MERGE:          0
cpu0->LLC PREFETCH     ACCESS:          0 HIT:          0 MISS:          0 MSHR_MERGE:          0
cpu0->LLC WRITE        ACCESS:        415 HIT:        414 MISS:          1 MSHR_MERGE:          0
cpu0->LLC TRANSLATION  ACCESS:        106 HIT:          5 MISS:        101 MSHR_MERGE:          0
cpu0->LLC PREFETCH REQUESTED:          0 ISSUED:          0 USEFUL:          0 USELESS:          0
cpu0->LLC AVERAGE MISS LATENCY: 156.4 cycles

DRAM Statistics

Channel 0 RQ ROW_BUFFER_HIT:     193439
  ROW_BUFFER_MISS:     491286
  AVG DBUS CONGESTED CYCLE: 3.044
Channel 0 WQ ROW_BUFFER_HIT:         96
  ROW_BUFFER_MISS:        179
  FULL:          0
Channel 0 REFRESHES ISSUED:       8351
