[VMEM] WARNING: physical memory size is smaller than virtual memory size.

*** ChampSim Multicore Out-of-Order Simulator ***
Warmup Instructions: 10000000
Simulation Instructions: 50000000
Number of CPUs: 1
Page size: 4096

Off-chip DRAM Size: 16 GiB Channels: 1 Width: 64-bit Data Rate: 3205 MT/s
Heartbeat CPU 0 instructions: 10000004 cycles: 4024542 heartbeat IPC: 2.485 cumulative IPC: 2.485 (Simulation time: 00 hr 00 min 30 sec)
Warmup finished CPU 0 instructions: 10000004 cycles: 4024542 cumulative IPC: 2.485 (Simulation time: 00 hr 00 min 30 sec)
Warmup complete CPU 0 instructions: 10000004 cycles: 4024542 cumulative IPC: 2.485 (Simulation time: 00 hr 00 min 30 sec)
Heartbeat CPU 0 instructions: 20000007 cycles: 45584643 heartbeat IPC: 0.2406 cumulative IPC: 0.2406 (Simulation time: 00 hr 04 min 07 sec)
Heartbeat CPU 0 instructions: 30000007 cycles: 86853315 heartbeat IPC: 0.2423 cumulative IPC: 0.2415 (Simulation time: 00 hr 07 min 43 sec)
Heartbeat CPU 0 instructions: 40000008 cycles: 129276921 heartbeat IPC: 0.2357 cumulative IPC: 0.2395 (Simulation time: 00 hr 11 min 24 sec)
Heartbeat CPU 0 instructions: 50000011 cycles: 170697294 heartbeat IPC: 0.2414 cumulative IPC: 0.24 (Simulation time: 00 hr 15 min 03 sec)
Simulation finished CPU 0 instructions: 50000000 cycles: 208201351 cumulative IPC: 0.2402 (Simulation time: 00 hr 18 min 44 sec)
Simulation complete CPU 0 instructions: 50000000 cycles: 208201351 cumulative IPC: 0.2402 (Simulation time: 00 hr 18 min 44 sec)

ChampSim completed all CPUs

=== Simulation ===
CPU 0 runs traces/605.mcf_s-1536B.champsimtrace.xz

Region of Interest Statistics

CPU 0 cumulative IPC: 0.2402 instructions: 50000000 cycles: 208201351
CPU 0 Branch Prediction Accuracy: 99.97% MPKI: 0.0441 Average ROB Occupancy at Mispredict: 176.1
Branch type MPKI
BRANCH_DIRECT_JUMP: 0
BRANCH_INDIRECT: 0
BRANCH_CONDITIONAL: 0.0441
BRANCH_DIRECT_CALL: 0
BRANCH_INDIRECT_CALL: 0
BRANCH_RETURN: 0

cpu0->cpu0_STLB TOTAL        ACCESS:    1310393 HIT:     188955 MISS:    1121438 MSHR_MERGE:          0
cpu0->cpu0_STLB LOAD         ACCESS:    1310393 HIT:     188955 MISS:    1121438 MSHR_MERGE:          0
cpu0->cpu0_STLB RFO          ACCESS:          0 HIT:          0 MISS:          0 MSHR_MERGE:          0
cpu0->cpu0_STLB PREFETCH     ACCESS:          0 HIT:          0 MISS:          0 MSHR_MERGE:          0
cpu0->cpu0_STLB WRITE        ACCESS:          0 HIT:          0 MISS:          0 MSHR_MERGE:          0
cpu0->cpu0_STLB TRANSLATION  ACCESS:          0 HIT:          0 MISS:          0 MSHR_MERGE:          0
cpu0->cpu0_STLB PREFETCH REQUESTED:          0 ISSUED:          0 USEFUL:          0 USELESS:          0
cpu0->cpu0_STLB AVERAGE MISS LATENCY: 84.67 cycles
cpu0->cpu0_L2C TOTAL        ACCESS:    5935707 HIT:    2498270 MISS:    3437437 MSHR_MERGE:          0
cpu0->cpu0_L2C LOAD         ACCESS:    2443107 HIT:     908972 MISS:    1534135 MSHR_MERGE:          0
cpu0->cpu0_L2C RFO          ACCESS:     143258 HIT:      36395 MISS:     106863 MSHR_MERGE:          0
cpu0->cpu0_L2C PREFETCH     ACCESS:          0 HIT:          0 MISS:          0 MSHR_MERGE:          0
cpu0->cpu0_L2C WRITE        ACCESS:    1113258 HIT:    1113258 MISS:          0 MSHR_MERGE:          0
cpu0->cpu0_L2C TRANSLATION  ACCESS:    2236084 HIT:     439645 MISS:    1796439 MSHR_MERGE:          0
cpu0->cpu0_L2C PREFETCH REQUESTED:          0 ISSUED:          0 USEFUL:          0 USELESS:          0
cpu0->cpu0_L2C AVERAGE MISS LATENCY: 106.4 cycles
cpu0->cpu0_L1I TOTAL        ACCESS:   11109757 HIT:   11109757 MISS:          0 MSHR_MERGE:          0
cpu0->cpu0_L1I LOAD         ACCESS:   11109757 HIT:   11109757 MISS:          0 MSHR_MERGE:          0
cpu0->cpu0_L1I RFO          ACCESS:          0 HIT:          0 MISS:          0 MSHR_MERGE:          0
cpu0->cpu0_L1I PREFETCH     ACCESS:          0 HIT:          0 MISS:          0 MSHR_MERGE:          0
cpu0->cpu0_L1I WRITE        ACCESS:          0 HIT:          0 MISS:          0 MSHR_MERGE:          0
cpu0->cpu0_L1I TRANSLATION  ACCESS:          0 HIT:          0 MISS:          0 MSHR_MERGE:          0
cpu0->cpu0_L1I PREFETCH REQUESTED:          0 ISSUED:          0 USEFUL:          0 USELESS:          0
cpu0->cpu0_L1I AVERAGE MISS LATENCY: - cycles
cpu0->cpu0_L1D TOTAL        ACCESS:   14594014 HIT:    8096961 MISS:    6497053 MSHR_MERGE:    1674590
cpu0->cpu0_L1D LOAD         ACCESS:    9964244 HIT:    5867387 MISS:    4096857 MSHR_MERGE:    1653750
cpu0->cpu0_L1D RFO          ACCESS:          0 HIT:          0 MISS:          0 MSHR_MERGE:          0
cpu0->cpu0_L1D PREFETCH     ACCESS:          0 HIT:          0 MISS:          0 MSHR_MERGE:          0
cpu0->cpu0_L1D WRITE        ACCESS:    2217254 HIT:    2073925 MISS:     143329 MSHR_MERGE:         56
cpu0->cpu0_L1D TRANSLATION  ACCESS:    2412516 HIT:     155649 MISS:    2256867 MSHR_MERGE:      20784
cpu0->cpu0_L1D PREFETCH REQUESTED:          0 ISSUED:          0 USEFUL:          0 USELESS:          0
cpu0->cpu0_L1D AVERAGE MISS LATENCY: 84.65 cycles
cpu0->cpu0_ITLB TOTAL        ACCESS:    9955273 HIT:    9955273 MISS:          0 MSHR_MERGE:          0
cpu0->cpu0_ITLB LOAD         ACCESS:    9955273 HIT:    9955273 MISS:          0 MSHR_MERGE:          0
cpu0->cpu0_ITLB RFO          ACCESS:          0 HIT:          0 MISS:          0 MSHR_MERGE:          0
cpu0->cpu0_ITLB PREFETCH     ACCESS:          0 HIT:          0 MISS:          0 MSHR_MERGE:          0
cpu0->cpu0_ITLB WRITE        ACCESS:          0 HIT:          0 MISS:          0 MSHR_MERGE:          0
cpu0->cpu0_ITLB TRANSLATION  ACCESS:          0 HIT:          0 MISS:          0 MSHR_MERGE:          0
cpu0->cpu0_ITLB PREFETCH REQUESTED:          0 ISSUED:          0 USEFUL:          0 USELESS:          0
cpu0->cpu0_ITLB AVERAGE MISS LATENCY: - cycles
cpu0->cpu0_DTLB TOTAL        ACCESS:   12087081 HIT:    8794047 MISS:    3293034 MSHR_MERGE:    1982641
cpu0->cpu0_DTLB LOAD         ACCESS:   12087081 HIT:    8794047 MISS:    3293034 MSHR_MERGE:    1982641
cpu0->cpu0_DTLB RFO          ACCESS:          0 HIT:          0 MISS:          0 MSHR_MERGE:          0
cpu0->cpu0_DTLB PREFETCH     ACCESS:          0 HIT:          0 MISS:          0 MSHR_MERGE:          0
cpu0->cpu0_DTLB WRITE        ACCESS:          0 HIT:          0 MISS:          0 MSHR_MERGE:          0
cpu0->cpu0_DTLB TRANSLATION  ACCESS:          0 HIT:          0 MISS:          0 MSHR_MERGE:          0
cpu0->cpu0_DTLB PREFETCH REQUESTED:          0 ISSUED:          0 USEFUL:          0 USELESS:          0
cpu0->cpu0_DTLB AVERAGE MISS LATENCY: 78.32 cycles
cpu0->LLC TOTAL        ACCESS:    4546350 HIT:    3174372 MISS:    1371978 MSHR_MERGE:          0
cpu0->LLC LOAD         ACCESS:    1534135 HIT:     258555 MISS:    1275580 MSHR_MERGE:          0
cpu0->LLC RFO          ACCESS:     106863 HIT:     106844 MISS:         19 MSHR_MERGE:          0
cpu0->LLC PREFETCH     ACCESS:          0 HIT:          0 MISS:          0 MSHR_MERGE:          0
cpu0->LLC WRITE        ACCESS:    1108914 HIT:    1108914 MISS:          0 MSHR_MERGE:          0
cpu0->LLC TRANSLATION  ACCESS:    1796438 HIT:    1700059 MISS:      96379 MSHR_MERGE:          0
cpu0->LLC PREFETCH REQUESTED:          0 ISSUED:          0 USEFUL:          0 USELESS:          0
cpu0->LLC AVERAGE MISS LATENCY: 227.9 cycles

DRAM Statistics

Channel 0 RQ ROW_BUFFER_HIT:        396
  ROW_BUFFER_MISS:    1371582
  AVG DBUS CONGESTED CYCLE: 5.827
Channel 0 WQ ROW_BUFFER_HIT:     361867
  ROW_BUFFER_MISS:     746207
  FULL:          0
Channel 0 REFRESHES ISSUED:      17350
