[VMEM] WARNING: physical memory size is smaller than virtual memory size.

*** ChampSim Multicore Out-of-Order Simulator ***
Warmup Instructions: 10000000
Simulation Instructions: 50000000
Number of CPUs: 1
Page size: 4096

Off-chip DRAM Size: 16 GiB Channels: 1 Width: 64-bit Data Rate: 3205 MT/s
Heartbeat CPU 0 instructions: 10000002 cycles: 6370364 heartbeat IPC: 1.57 cumulative IPC: 1.57 (Simulation time: 00 hr 00 min 45 sec)
Warmup finished CPU 0 instructions: 10000002 cycles: 6370364 cumulative IPC: 1.57 (Simulation time: 00 hr 00 min 45 sec)
Warmup complete CPU 0 instructions: 10000002 cycles: 6370364 cumulative IPC: 1.57 (Simulation time: 00 hr 00 min 45 sec)
Heartbeat CPU 0 instructions: 20000002 cycles: 45066113 heartbeat IPC: 0.2584 cumulative IPC: 0.2584 (Simulation time: 00 hr 02 min 59 sec)
Heartbeat CPU 0 instructions: 30000003 cycles: 81453182 heartbeat IPC: 0.2748 cumulative IPC: 0.2664 (Simulation time: 00 hr 05 min 05 sec)
Heartbeat CPU 0 instructions: 40000003 cycles: 118772103 heartbeat IPC: 0.268 cumulative IPC: 0.2669 (Simulation time: 00 hr 07 min 17 sec)
Heartbeat CPU 0 instructions: 50000003 cycles: 155298309 heartbeat IPC: 0.2738 cumulative IPC: 0.2686 (Simulation time: 00 hr 09 min 24 sec)
Heartbeat CPU 0 instructions: 60000006 cycles: 189978903 heartbeat IPC: 0.2883 cumulative IPC: 0.2723 (Simulation time: 00 hr 11 min 27 sec)
Simulation finished CPU 0 instructions: 50000004 cycles: 183608539 cumulative IPC: 0.2723 (Simulation time: 00 hr 11 min 27 sec)
Simulation complete CPU 0 instructions: 50000004 cycles: 183608539 cumulative IPC: 0.2723 (Simulation time: 00 hr 11 min 27 sec)

ChampSim completed all CPUs

=== Simulation ===
CPU 0 runs traces/620.omnetpp_s-141B.champsimtrace.xz

Region of Interest Statistics

CPU 0 cumulative IPC: 0.2723 instructions: 50000004 cycles: 183608539
CPU 0 Branch Prediction Accuracy: 93.1% MPKI: 14.53 Average ROB Occupancy at Mispredict: 42.29
Branch type MPKI
BRANCH_DIRECT_JUMP: 0.8368
BRANCH_INDIRECT: 0.3548
BRANCH_CONDITIONAL: 12.03
BRANCH_DIRECT_CALL: 0.00142
BRANCH_INDIRECT_CALL: 0.8572
BRANCH_RETURN: 0.4452

cpu0->cpu0_STLB TOTAL        ACCESS:    1112491 HIT:     867661 MISS:     244830 MSHR_MERGE:          0
cpu0->cpu0_STLB LOAD         ACCESS:    1112491 HIT:     867661 MISS:     244830 MSHR_MERGE:          0
cpu0->cpu0_STLB RFO          ACCESS:          0 HIT:          0 MISS:          0 MSHR_MERGE:          0
cpu0->cpu0_STLB PREFETCH     ACCESS:          0 HIT:          0 MISS:          0 MSHR_MERGE:          0
cpu0->cpu0_STLB WRITE        ACCESS:          0 HIT:          0 MISS:          0 MSHR_MERGE:          0
cpu0->cpu0_STLB TRANSLATION  ACCESS:          0 HIT:          0 MISS:          0 MSHR_MERGE:          0
cpu0->cpu0_STLB PREFETCH REQUESTED:          0 ISSUED:          0 USEFUL:          0 USELESS:          0
cpu0->cpu0_STLB AVERAGE MISS LATENCY: 326.2 cycles
cpu0->cpu0_L2C TOTAL        ACCESS:    2041378 HIT:     891462 MISS:    1149916 MSHR_MERGE:          0
cpu0->cpu0_L2C LOAD         ACCESS:     900870 HIT:     259572 MISS:     641298 MSHR_MERGE:          0
cpu0->cpu0_L2C RFO          ACCESS:     118448 HIT:      23862 MISS:      94586 MSHR_MERGE:          0
cpu0->cpu0_L2C PREFETCH     ACCESS:          0 HIT:          0 MISS:          0 MSHR_MERGE:          0
cpu0->cpu0_L2C WRITE        ACCESS:     478393 HIT:     477255 MISS:       1138 MSHR_MERGE:          0
cpu0->cpu0_L2C TRANSLATION  ACCESS:     543667 HIT:     130773 MISS:     412894 MSHR_MERGE:          0
cpu0->cpu0_L2C PREFETCH REQUESTED:          0 ISSUED:          0 USEFUL:          0 USELESS:          0
cpu0->cpu0_L2C AVERAGE MISS LATENCY: 155.8 cycles
cpu0->cpu0_L1I TOTAL        ACCESS:    6751814 HIT:    6716086 MISS:      35728 MSHR_MERGE:       8248
cpu0->cpu0_L1I LOAD         ACCESS:    6751814 HIT:    6716086 MISS:      35728 MSHR_MERGE:       8248
cpu0->cpu0_L1I RFO          ACCESS:          0 HIT:          0 MISS:          0 MSHR_MERGE:          0
cpu0->cpu0_L1I PREFETCH     ACCESS:          0 HIT:          0 MISS:          0 MSHR_MERGE:          0
cpu0->cpu0_L1I WRITE        ACCESS:          0 HIT:          0 MISS:          0 MSHR_MERGE:          0
cpu0->cpu0_L1I TRANSLATION  ACCESS:          0 HIT:          0 MISS:          0 MSHR_MERGE:          0
cpu0->cpu0_L1I PREFETCH REQUESTED:          0 ISSUED:          0 USEFUL:          0 USELESS:          0
cpu0->cpu0_L1I AVERAGE MISS LATENCY: 23.2 cycles
cpu0->cpu0_L1D TOTAL        ACCESS:   20448813 HIT:   18403883 MISS:    2044930 MSHR_MERGE:     509426
cpu0->cpu0_L1D LOAD         ACCESS:   10796435 HIT:    9669803 MISS:    1126632 MSHR_MERGE:     253243
cpu0->cpu0_L1D RFO          ACCESS:          0 HIT:          0 MISS:          0 MSHR_MERGE:          0
cpu0->cpu0_L1D PREFETCH     ACCESS:          0 HIT:          0 MISS:          0 MSHR_MERGE:          0
cpu0->cpu0_L1D WRITE        ACCESS:    9063000 HIT:    8689770 MISS:     373230 MSHR_MERGE:     254782
cpu0->cpu0_L1D TRANSLATION  ACCESS:     589378 HIT:      44310 MISS:     545068 MSHR_MERGE:       1401
cpu0->cpu0_L1D PREFETCH REQUESTED:          0 ISSUED:          0 USEFUL:          0 USELESS:          0
cpu0->cpu0_L1D AVERAGE MISS LATENCY: 125.2 cycles
cpu0->cpu0_ITLB TOTAL        ACCESS:    5967436 HIT:    5814148 MISS:     153288 MSHR_MERGE:      74171
cpu0->cpu0_ITLB LOAD         ACCESS:    5967436 HIT:    5814148 MISS:     153288 MSHR_MERGE:      74171
cpu0->cpu0_ITLB RFO          ACCESS:          0 HIT:          0 MISS:          0 MSHR_MERGE:          0
cpu0->cpu0_ITLB PREFETCH     ACCESS:          0 HIT:          0 MISS:          0 MSHR_MERGE:          0
cpu0->cpu0_ITLB WRITE        ACCESS:          0 HIT:          0 MISS:          0 MSHR_MERGE:          0
cpu0->cpu0_ITLB TRANSLATION  ACCESS:          0 HIT:          0 MISS:          0 MSHR_MERGE:          0
cpu0->cpu0_ITLB PREFETCH REQUESTED:          0 ISSUED:          0 USEFUL:          0 USELESS:          0
cpu0->cpu0_ITLB AVERAGE MISS LATENCY: 7.765 cycles
cpu0->cpu0_DTLB TOTAL        ACCESS:   18857475 HIT:   17643231 MISS:    1214244 MSHR_MERGE:     180870
cpu0->cpu0_DTLB LOAD         ACCESS:   18857475 HIT:   17643231 MISS:    1214244 MSHR_MERGE:     180870
cpu0->cpu0_DTLB RFO          ACCESS:          0 HIT:          0 MISS:          0 MSHR_MERGE:          0
cpu0->cpu0_DTLB PREFETCH     ACCESS:          0 HIT:          0 MISS:          0 MSHR_MERGE:          0
cpu0->cpu0_DTLB WRITE        ACCESS:          0 HIT:          0 MISS:          0 MSHR_MERGE:          0
cpu0->cpu0_DTLB TRANSLATION  ACCESS:          0 HIT:          0 MISS:          0 MSHR_MERGE:          0
cpu0->cpu0_DTLB PREFETCH REQUESTED:          0 ISSUED:          0 USEFUL:          0 USELESS:          0
cpu0->cpu0_DTLB AVERAGE MISS LATENCY: 82.31 cycles
cpu0->LLC TOTAL        ACCESS:    1511996 HIT:     663968 MISS:     848028 MSHR_MERGE:          0
cpu0->LLC LOAD         ACCESS:     641298 HIT:     143826 MISS:     497472 MSHR_MERGE:          0
cpu0->LLC RFO          ACCESS:      94586 HIT:      33971 MISS:      60615 MSHR_MERGE:          0
cpu0->LLC PREFETCH     ACCESS:          0 HIT:          0 MISS:          0 MSHR_MERGE:          0
cpu0->LLC WRITE        ACCESS:     363218 HIT:     361784 MISS:       1434 MSHR_MERGE:          0
cpu0->LLC TRANSLATION  ACCESS:     412894 HIT:     124387 MISS:     288507 MSHR_MERGE:          0
cpu0->LLC PREFETCH REQUESTED:          0 ISSUED:          0 USEFUL:          0 USELESS:          0
cpu0->LLC AVERAGE MISS LATENCY: 190 cycles

DRAM Statistics

Channel 0 RQ ROW_BUFFER_HIT:       3020
  ROW_BUFFER_MISS:     843559
  AVG DBUS CONGESTED CYCLE: 19.68
Channel 0 WQ ROW_BUFFER_HIT:      96511
  ROW_BUFFER_MISS:     169115
  FULL:          0
Channel 0 REFRESHES ISSUED:      15301
