[VMEM] WARNING: physical memory size is smaller than virtual memory size.

*** ChampSim Multicore Out-of-Order Simulator ***
Warmup Instructions: 10000000
Simulation Instructions: 50000000
Number of CPUs: 1
Page size: 4096

Off-chip DRAM Size: 16 GiB Channels: 1 Width: 64-bit Data Rate: 3205 MT/s
Heartbeat CPU 0 instructions: 10000002 cycles: 2777504 heartbeat IPC: 3.6 cumulative IPC: 3.6 (Simulation time: 00 hr 00 min 21 sec)
Warmup finished CPU 0 instructions: 10000002 cycles: 2777504 cumulative IPC: 3.6 (Simulation time: 00 hr 00 min 21 sec)
Warmup complete CPU 0 instructions: 10000002 cycles: 2777504 cumulative IPC: 3.6 (Simulation time: 00 hr 00 min 21 sec)
Heartbeat CPU 0 instructions: 20000005 cycles: 12101533 heartbeat IPC: 1.072 cumulative IPC: 1.072 (Simulation time: 00 hr 01 min 17 sec)
Heartbeat CPU 0 instructions: 30000007 cycles: 19350734 heartbeat IPC: 1.379 cumulative IPC: 1.207 (Simulation time: 00 hr 02 min 04 sec)
Heartbeat CPU 0 instructions: 40000010 cycles: 28695152 heartbeat IPC: 1.07 cumulative IPC: 1.158 (Simulation time: 00 hr 03 min 01 sec)
Heartbeat CPU 0 instructions: 50000012 cycles: 35813853 heartbeat IPC: 1.405 cumulative IPC: 1.211 (Simulation time: 00 hr 03 min 47 sec)
Simulation finished CPU 0 instructions: 50000001 cycles: 42423496 cumulative IPC: 1.179 (Simulation time: 00 hr 04 min 44 sec)
Simulation complete CPU 0 instructions: 50000001 cycles: 42423496 cumulative IPC: 1.179 (Simulation time: 00 hr 04 min 44 sec)

ChampSim completed all CPUs

=== Simulation ===
CPU 0 runs traces/654.roms_s-293B.champsimtrace.xz

Region of Interest Statistics

CPU 0 cumulative IPC: 1.179 instructions: 50000001 cycles: 42423496
CPU 0 Branch Prediction Accuracy: 99.79% MPKI: 0.02664 Average ROB Occupancy at Mispredict: 329.7
Branch type MPKI
BRANCH_DIRECT_JUMP: 0
BRANCH_INDIRECT: 0
BRANCH_CONDITIONAL: 0.02664
BRANCH_DIRECT_CALL: 0
BRANCH_INDIRECT_CALL: 0
BRANCH_RETURN: 0

cpu0->cpu0_STLB TOTAL        ACCESS:      14280 HIT:       9240 MISS:       5040 MSHR_MERGE:          0
cpu0->cpu0_STLB LOAD         ACCESS:      14280 HIT:       9240 MISS:       5040 MSHR_MERGE:          0
cpu0->cpu0_STLB RFO          ACCESS:          0 HIT:          0 MISS:          0 MSHR_MERGE:          0
cpu0->cpu0_STLB PREFETCH     ACCESS:          0 HIT:          0 MISS:          0 MSHR_MERGE:          0
cpu0->cpu0_STLB WRITE        ACCESS:          0 HIT:          0 MISS:          0 MSHR_MERGE:          0
cpu0->cpu0_STLB TRANSLATION  ACCESS:          0 HIT:          0 MISS:          0 MSHR_MERGE:          0
cpu0->cpu0_STLB PREFETCH REQUESTED:          0 ISSUED:          0 USEFUL:          0 USELESS:          0
cpu0->cpu0_STLB AVERAGE MISS LATENCY: 885.5 cycles
cpu0->cpu0_L2C TOTAL        ACCESS:     878796 HIT:     357194 MISS:     521602 MSHR_MERGE:          0
cpu0->cpu0_L2C LOAD         ACCESS:     366071 HIT:     103838 MISS:     262233 MSHR_MERGE:          0
cpu0->cpu0_L2C RFO          ACCESS:     250791 HIT:        954 MISS:     249837 MSHR_MERGE:          0
cpu0->cpu0_L2C PREFETCH     ACCESS:          0 HIT:          0 MISS:          0 MSHR_MERGE:          0
cpu0->cpu0_L2C WRITE        ACCESS:     251769 HIT:     251376 MISS:        393 MSHR_MERGE:          0
cpu0->cpu0_L2C TRANSLATION  ACCESS:      10165 HIT:       1026 MISS:       9139 MSHR_MERGE:          0
cpu0->cpu0_L2C PREFETCH REQUESTED:          0 ISSUED:          0 USEFUL:          0 USELESS:          0
cpu0->cpu0_L2C AVERAGE MISS LATENCY: 171.3 cycles
cpu0->cpu0_L1I TOTAL        ACCESS:   10013065 HIT:   10013065 MISS:          0 MSHR_MERGE:          0
cpu0->cpu0_L1I LOAD         ACCESS:   10013065 HIT:   10013065 MISS:          0 MSHR_MERGE:          0
cpu0->cpu0_L1I RFO          ACCESS:          0 HIT:          0 MISS:          0 MSHR_MERGE:          0
cpu0->cpu0_L1I PREFETCH     ACCESS:          0 HIT:          0 MISS:          0 MSHR_MERGE:          0
cpu0->cpu0_L1I WRITE        ACCESS:          0 HIT:          0 MISS:          0 MSHR_MERGE:          0
cpu0->cpu0_L1I TRANSLATION  ACCESS:          0 HIT:          0 MISS:          0 MSHR_MERGE:          0
cpu0->cpu0_L1I PREFETCH REQUESTED:          0 ISSUED:          0 USEFUL:          0 USELESS:          0
cpu0->cpu0_L1I AVERAGE MISS LATENCY: - cycles
cpu0->cpu0_L1D TOTAL        ACCESS:   15660370 HIT:   14161376 MISS:    1498994 MSHR_MERGE:     871922
cpu0->cpu0_L1D LOAD         ACCESS:   11023732 HIT:   10397681 MISS:     626051 MSHR_MERGE:     259980
cpu0->cpu0_L1D RFO          ACCESS:          0 HIT:          0 MISS:          0 MSHR_MERGE:          0
cpu0->cpu0_L1D PREFETCH     ACCESS:          0 HIT:          0 MISS:          0 MSHR_MERGE:          0
cpu0->cpu0_L1D WRITE        ACCESS:    4623968 HIT:    3761235 MISS:     862733 MSHR_MERGE:     611897
cpu0->cpu0_L1D TRANSLATION  ACCESS:      12670 HIT:       2460 MISS:      10210 MSHR_MERGE:         45
cpu0->cpu0_L1D PREFETCH REQUESTED:          0 ISSUED:          0 USEFUL:          0 USELESS:          0
cpu0->cpu0_L1D AVERAGE MISS LATENCY: 151.4 cycles
cpu0->cpu0_ITLB TOTAL        ACCESS:    7430808 HIT:    7430808 MISS:          0 MSHR_MERGE:          0
cpu0->cpu0_ITLB LOAD         ACCESS:    7430808 HIT:    7430808 MISS:          0 MSHR_MERGE:          0
cpu0->cpu0_ITLB RFO          ACCESS:          0 HIT:          0 MISS:          0 MSHR_MERGE:          0
cpu0->cpu0_ITLB PREFETCH     ACCESS:          0 HIT:          0 MISS:          0 MSHR_MERGE:          0
cpu0->cpu0_ITLB WRITE        ACCESS:          0 HIT:          0 MISS:          0 MSHR_MERGE:          0
cpu0->cpu0_ITLB TRANSLATION  ACCESS:          0 HIT:          0 MISS:          0 MSHR_MERGE:          0
cpu0->cpu0_ITLB PREFETCH REQUESTED:          0 ISSUED:          0 USEFUL:          0 USELESS:          0
cpu0->cpu0_ITLB AVERAGE MISS LATENCY: - cycles
cpu0->cpu0_DTLB TOTAL        ACCESS:   14815223 HIT:   14776928 MISS:      38295 MSHR_MERGE:      24015
cpu0->cpu0_DTLB LOAD         ACCESS:   14815223 HIT:   14776928 MISS:      38295 MSHR_MERGE:      24015
cpu0->cpu0_DTLB RFO          ACCESS:          0 HIT:          0 MISS:          0 MSHR_MERGE:          0
cpu0->cpu0_DTLB PREFETCH     ACCESS:          0 HIT:          0 MISS:          0 MSHR_MERGE:          0
cpu0->cpu0_DTLB WRITE        ACCESS:          0 HIT:          0 MISS:          0 MSHR_MERGE:          0
cpu0->cpu0_DTLB TRANSLATION  ACCESS:          0 HIT:          0 MISS:          0 MSHR_MERGE:          0
cpu0->cpu0_DTLB PREFETCH REQUESTED:          0 ISSUED:          0 USEFUL:          0 USELESS:          0
cpu0->cpu0_DTLB AVERAGE MISS LATENCY: 317.9 cycles
cpu0->LLC TOTAL        ACCESS:     773560 HIT:     431349 MISS:     342211 MSHR_MERGE:          0
cpu0->LLC LOAD         ACCESS:     262233 HIT:     119906 MISS:     142327 MSHR_MERGE:          0
cpu0->LLC RFO          ACCESS:     249837 HIT:      59043 MISS:     190794 MSHR_MERGE:          0
cpu0->LLC PREFETCH     ACCESS:          0 HIT:          0 MISS:          0 MSHR_MERGE:          0
cpu0->LLC WRITE        ACCESS:     252351 HIT:     252303 MISS:         48 MSHR_MERGE:          0
cpu0->LLC TRANSLATION  ACCESS:       9139 HIT:         97 MISS:       9042 MSHR_MERGE:          0
cpu0->LLC PREFETCH REQUESTED:          0 ISSUED:          0 USEFUL:          0 USELESS:          0
cpu0->LLC AVERAGE MISS LATENCY: 237.3 cycles

DRAM Statistics

Channel 0 RQ ROW_BUFFER_HIT:       1645
  ROW_BUFFER_MISS:     339771
  AVG DBUS CONGESTED CYCLE: 6.935
Channel 0 WQ ROW_BUFFER_HIT:      64158
  ROW_BUFFER_MISS:     150676
  FULL:          0
Channel 0 REFRESHES ISSUED:       3535
