[VMEM] WARNING: physical memory size is smaller than virtual memory size.

*** ChampSim Multicore Out-of-Order Simulator ***
Warmup Instructions: 10000000
Simulation Instructions: 50000000
Number of CPUs: 1
Page size: 4096

Off-chip DRAM Size: 16 GiB Channels: 1 Width: 64-bit Data Rate: 3205 MT/s
Heartbeat CPU 0 instructions: 10000001 cycles: 3398667 heartbeat IPC: 2.942 cumulative IPC: 2.942 (Simulation time: 00 hr 00 min 25 sec)
Warmup finished CPU 0 instructions: 10000001 cycles: 3398667 cumulative IPC: 2.942 (Simulation time: 00 hr 00 min 25 sec)
Warmup complete CPU 0 instructions: 10000001 cycles: 3398667 cumulative IPC: 2.942 (Simulation time: 00 hr 00 min 25 sec)
Heartbeat CPU 0 instructions: 20000002 cycles: 12130482 heartbeat IPC: 1.145 cumulative IPC: 1.145 (Simulation time: 00 hr 01 min 05 sec)
Heartbeat CPU 0 instructions: 30000005 cycles: 20798264 heartbeat IPC: 1.154 cumulative IPC: 1.149 (Simulation time: 00 hr 01 min 43 sec)
Heartbeat CPU 0 instructions: 40000005 cycles: 29455716 heartbeat IPC: 1.155 cumulative IPC: 1.151 (Simulation time: 00 hr 02 min 22 sec)
Heartbeat CPU 0 instructions: 50000009 cycles: 38100806 heartbeat IPC: 1.157 cumulative IPC: 1.153 (Simulation time: 00 hr 03 min 01 sec)
Simulation finished CPU 0 instructions: 50000003 cycles: 43553868 cumulative IPC: 1.148 (Simulation time: 00 hr 03 min 40 sec)
Simulation complete CPU 0 instructions: 50000003 cycles: 43553868 cumulative IPC: 1.148 (Simulation time: 00 hr 03 min 40 sec)

ChampSim completed all CPUs

=== Simulation ===
CPU 0 runs traces/631.deepsjeng_s-928B.champsimtrace.xz

Region of Interest Statistics

CPU 0 cumulative IPC: 1.148 instructions: 50000003 cycles: 43553868
CPU 0 Branch Prediction Accuracy: 91.41% MPKI: 12.76 Average ROB Occupancy at Mispredict: 35.17
Branch type MPKI
BRANCH_DIRECT_JUMP: 0.01754
BRANCH_INDIRECT: 0.01102
BRANCH_CONDITIONAL: 12.24
BRANCH_DIRECT_CALL: 0.01738
BRANCH_INDIRECT_CALL: 0
BRANCH_RETURN: 0.4758

cpu0->cpu0_STLB TOTAL        ACCESS:      13770 HIT:       4630 MISS:       9140 MSHR_MERGE:          0
cpu0->cpu0_STLB LOAD         ACCESS:      13770 HIT:       4630 MISS:       9140 MSHR_MERGE:          0
cpu0->cpu0_STLB RFO          ACCESS:          0 HIT:          0 MISS:          0 MSHR_MERGE:          0
cpu0->cpu0_STLB PREFETCH     ACCESS:          0 HIT:          0 MISS:          0 MSHR_MERGE:          0
cpu0->cpu0_STLB WRITE        ACCESS:          0 HIT:          0 MISS:          0 MSHR_MERGE:          0
cpu0->cpu0_STLB TRANSLATION  ACCESS:          0 HIT:          0 MISS:          0 MSHR_MERGE:          0
cpu0->cpu0_STLB PREFETCH REQUESTED:          0 ISSUED:          0 USEFUL:          0 USELESS:          0
cpu0->cpu0_STLB AVERAGE MISS LATENCY: 851.3 cycles
cpu0->cpu0_L2C TOTAL        ACCESS:     144098 HIT:     104409 MISS:      39689 MSHR_MERGE:          0
cpu0->cpu0_L2C LOAD         ACCESS:      75410 HIT:      60048 MISS:      15362 MSHR_MERGE:          0
cpu0->cpu0_L2C RFO          ACCESS:      14730 HIT:      13783 MISS:        947 MSHR_MERGE:          0
cpu0->cpu0_L2C PREFETCH     ACCESS:          0 HIT:          0 MISS:          0 MSHR_MERGE:          0
cpu0->cpu0_L2C WRITE        ACCESS:      27139 HIT:      27089 MISS:         50 MSHR_MERGE:          0
cpu0->cpu0_L2C TRANSLATION  ACCESS:      26819 HIT:       3489 MISS:      23330 MSHR_MERGE:          0
cpu0->cpu0_L2C PREFETCH REQUESTED:          0 ISSUED:          0 USEFUL:          0 USELESS:          0
cpu0->cpu0_L2C AVERAGE MISS LATENCY: 154 cycles
cpu0->cpu0_L1I TOTAL        ACCESS:    5936194 HIT:    5877333 MISS:      58861 MSHR_MERGE:      13834
cpu0->cpu0_L1I LOAD         ACCESS:    5936194 HIT:    5877333 MISS:      58861 MSHR_MERGE:      13834
cpu0->cpu0_L1I RFO          ACCESS:          0 HIT:          0 MISS:          0 MSHR_MERGE:          0
cpu0->cpu0_L1I PREFETCH     ACCESS:          0 HIT:          0 MISS:          0 MSHR_MERGE:          0
cpu0->cpu0_L1I WRITE        ACCESS:          0 HIT:          0 MISS:          0 MSHR_MERGE:          0
cpu0->cpu0_L1I TRANSLATION  ACCESS:          0 HIT:          0 MISS:          0 MSHR_MERGE:          0
cpu0->cpu0_L1I PREFETCH REQUESTED:          0 ISSUED:          0 USEFUL:          0 USELESS:          0
cpu0->cpu0_L1I AVERAGE MISS LATENCY: 7.307 cycles
cpu0->cpu0_L1D TOTAL        ACCESS:   15089777 HIT:   14979125 MISS:     110652 MSHR_MERGE:      38718
cpu0->cpu0_L1D LOAD         ACCESS:    9096434 HIT:    9051429 MISS:      45005 MSHR_MERGE:      14620
cpu0->cpu0_L1D RFO          ACCESS:          0 HIT:          0 MISS:          0 MSHR_MERGE:          0
cpu0->cpu0_L1D PREFETCH     ACCESS:          0 HIT:          0 MISS:          0 MSHR_MERGE:          0
cpu0->cpu0_L1D WRITE        ACCESS:    5965787 HIT:    5927019 MISS:      38768 MSHR_MERGE:      24038
cpu0->cpu0_L1D TRANSLATION  ACCESS:      27556 HIT:        677 MISS:      26879 MSHR_MERGE:         60
cpu0->cpu0_L1D PREFETCH REQUESTED:          0 ISSUED:          0 USEFUL:          0 USELESS:          0
cpu0->cpu0_L1D AVERAGE MISS LATENCY: 93.39 cycles
cpu0->cpu0_ITLB TOTAL        ACCESS:    5047119 HIT:    5047119 MISS:          0 MSHR_MERGE:          0
cpu0->cpu0_ITLB LOAD         ACCESS:    5047119 HIT:    5047119 MISS:          0 MSHR_MERGE:          0
cpu0->cpu0_ITLB RFO          ACCESS:          0 HIT:          0 MISS:          0 MSHR_MERGE:          0
cpu0->cpu0_ITLB PREFETCH     ACCESS:          0 HIT:          0 MISS:          0 MSHR_MERGE:          0
cpu0->cpu0_ITLB WRITE        ACCESS:          0 HIT:          0 MISS:          0 MSHR_MERGE:          0
cpu0->cpu0_ITLB TRANSLATION  ACCESS:          0 HIT:          0 MISS:          0 MSHR_MERGE:          0
cpu0->cpu0_ITLB PREFETCH REQUESTED:          0 ISSUED:          0 USEFUL:          0 USELESS:          0
cpu0->cpu0_ITLB AVERAGE MISS LATENCY: - cycles
cpu0->cpu0_DTLB TOTAL        ACCESS:   14138015 HIT:   14107620 MISS:      30395 MSHR_MERGE:      16625
cpu0->cpu0_DTLB LOAD         ACCESS:   14138015 HIT:   14107620 MISS:      30395 MSHR_MERGE:      16625
cpu0->cpu0_DTLB RFO          ACCESS:          0 HIT:          0 MISS:          0 MSHR_MERGE:          0
cpu0->cpu0_DTLB PREFETCH     ACCESS:          0 HIT:          0 MISS:          0 MSHR_MERGE:          0
cpu0->cpu0_DTLB WRITE        ACCESS:          0 HIT:          0 MISS:          0 MSHR_MERGE:          0
cpu0->cpu0_DTLB TRANSLATION  ACCESS:          0 HIT:          0 MISS:          0 MSHR_MERGE:          0
cpu0->cpu0_DTLB PREFETCH REQUESTED:          0 ISSUED:          0 USEFUL:          0 USELESS:          0
cpu0->cpu0_DTLB AVERAGE MISS LATENCY: 570.7 cycles
cpu0->LLC TOTAL        ACCESS:      50453 HIT:      16457 MISS:      33996 MSHR_MERGE:          0
cpu0->LLC LOAD         ACCESS:      15362 HIT:       1071 MISS:      14291 MSHR_MERGE:          0
cpu0->LLC RFO          ACCESS:        947 HIT:        561 MISS:        386 MSHR_MERGE:          0
cpu0->LLC PREFETCH     ACCESS:          0 HIT:          0 MISS:          0 MSHR_MERGE:          0
cpu0->LLC WRITE        ACCESS:      10814 HIT:      10763 MISS:         51 MSHR_MERGE:          0
cpu0->LLC TRANSLATION  ACCESS:      23330 HIT:       4062 MISS:      19268 MSHR_MERGE:          0
cpu0->LLC PREFETCH REQUESTED:          0 ISSUED:          0 USEFUL:          0 USELESS:          0
cpu0->LLC AVERAGE MISS LATENCY: 161.3 cycles

DRAM Statistics

Channel 0 RQ ROW_BUFFER_HIT:         15
  ROW_BUFFER_MISS:      33930
  AVG DBUS CONGESTED CYCLE: 5.859
Channel 0 WQ ROW_BUFFER_HIT:         52
  ROW_BUFFER_MISS:       3206
  FULL:          0
Channel 0 REFRESHES ISSUED:       3629
