[VMEM] WARNING: physical memory size is smaller than virtual memory size.

*** ChampSim Multicore Out-of-Order Simulator ***
Warmup Instructions: 10000000
Simulation Instructions: 50000000
Number of CPUs: 1
Page size: 4096

Off-chip DRAM Size: 16 GiB Channels: 1 Width: 64-bit Data Rate: 3205 MT/s
Heartbeat CPU 0 instructions: 10000000 cycles: 2857122 heartbeat IPC: 3.5 cumulative IPC: 3.5 (Simulation time: 00 hr 00 min 26 sec)
Warmup finished CPU 0 instructions: 10000000 cycles: 2857122 cumulative IPC: 3.5 (Simulation time: 00 hr 00 min 26 sec)
Warmup complete CPU 0 instructions: 10000000 cycles: 2857122 cumulative IPC: 3.5 (Simulation time: 00 hr 00 min 26 sec)
Heartbeat CPU 0 instructions: 20000004 cycles: 7615993 heartbeat IPC: 2.101 cumulative IPC: 2.101 (Simulation time: 00 hr 00 min 55 sec)
Heartbeat CPU 0 instructions: 30000006 cycles: 12323975 heartbeat IPC: 2.124 cumulative IPC: 2.113 (Simulation time: 00 hr 01 min 24 sec)
Heartbeat CPU 0 instructions: 40000010 cycles: 17091326 heartbeat IPC: 2.098 cumulative IPC: 2.108 (Simulation time: 00 hr 01 min 53 sec)
Heartbeat CPU 0 instructions: 50000010 cycles: 21649291 heartbeat IPC: 2.194 cumulative IPC: 2.129 (Simulation time: 00 hr 02 min 22 sec)
Simulation finished CPU 0 instructions: 50000001 cycles: 23287289 cumulative IPC: 2.147 (Simulation time: 00 hr 02 min 50 sec)
Simulation complete CPU 0 instructions: 50000001 cycles: 23287289 cumulative IPC: 2.147 (Simulation time: 00 hr 02 min 50 sec)

ChampSim completed all CPUs

=== Simulation ===
CPU 0 runs traces/600.perlbench_s-1273B.champsimtrace.xz

Region of Interest Statistics

CPU 0 cumulative IPC: 2.147 instructions: 50000001 cycles: 23287289
CPU 0 Branch Prediction Accuracy: 97.34% MPKI: 3.604 Average ROB Occupancy at Mispredict: 116
Branch type MPKI
BRANCH_DIRECT_JUMP: 0.01212
BRANCH_INDIRECT: 0.379
BRANCH_CONDITIONAL: 3.21
BRANCH_DIRECT_CALL: 0.00112
BRANCH_INDIRECT_CALL: 0.00022
BRANCH_RETURN: 0.00112

cpu0->cpu0_STLB TOTAL        ACCESS:      13664 HIT:      13368 MISS:        296 MSHR_MERGE:          0
cpu0->cpu0_STLB LOAD         ACCESS:      13664 HIT:      13368 MISS:        296 MSHR_MERGE:          0
cpu0->cpu0_STLB RFO          ACCESS:          0 HIT:          0 MISS:          0 MSHR_MERGE:          0
cpu0->cpu0_STLB PREFETCH     ACCESS:          0 HIT:          0 MISS:          0 MSHR_MERGE:          0
cpu0->cpu0_STLB WRITE        ACCESS:          0 HIT:          0 MISS:          0 MSHR_MERGE:          0
cpu0->cpu0_STLB TRANSLATION  ACCESS:          0 HIT:          0 MISS:          0 MSHR_MERGE:          0
cpu0->cpu0_STLB PREFETCH REQUESTED:          0 ISSUED:          0 USEFUL:          0 USELESS:          0
cpu0->cpu0_STLB AVERAGE MISS LATENCY: 797.8 cycles
cpu0->cpu0_L2C TOTAL        ACCESS:       4487 HIT:       1450 MISS:       3037 MSHR_MERGE:          0
cpu0->cpu0_L2C LOAD         ACCESS:       3572 HIT:       1148 MISS:       2424 MSHR_MERGE:          0
cpu0->cpu0_L2C RFO          ACCESS:         96 HIT:         26 MISS:         70 MSHR_MERGE:          0
cpu0->cpu0_L2C PREFETCH     ACCESS:          0 HIT:          0 MISS:          0 MSHR_MERGE:          0
cpu0->cpu0_L2C WRITE        ACCESS:        264 HIT:        264 MISS:          0 MSHR_MERGE:          0
cpu0->cpu0_L2C TRANSLATION  ACCESS:        555 HIT:         12 MISS:        543 MSHR_MERGE:          0
cpu0->cpu0_L2C PREFETCH REQUESTED:          0 ISSUED:          0 USEFUL:          0 USELESS:          0
cpu0->cpu0_L2C AVERAGE MISS LATENCY: 188.5 cycles
cpu0->cpu0_L1I TOTAL        ACCESS:    1840388 HIT:    1838777 MISS:       1611 MSHR_MERGE:        337
cpu0->cpu0_L1I LOAD         ACCESS:    1840388 HIT:    1838777 MISS:       1611 MSHR_MERGE:        337
cpu0->cpu0_L1I RFO          ACCESS:          0 HIT:          0 MISS:          0 MSHR_MERGE:          0
cpu0->cpu0_L1I PREFETCH     ACCESS:          0 HIT:          0 MISS:          0 MSHR_MERGE:          0
cpu0->cpu0_L1I WRITE        ACCESS:          0 HIT:          0 MISS:          0 MSHR_MERGE:          0
cpu0->cpu0_L1I TRANSLATION  ACCESS:          0 HIT:          0 MISS:          0 MSHR_MERGE:          0
cpu0->cpu0_L1I PREFETCH REQUESTED:          0 ISSUED:          0 USEFUL:          0 USELESS:          0
cpu0->cpu0_L1I AVERAGE MISS LATENCY: 36.78 cycles
cpu0->cpu0_L1D TOTAL        ACCESS:   16692043 HIT:   16688051 MISS:       3992 MSHR_MERGE:       1043
cpu0->cpu0_L1D LOAD         ACCESS:    6650907 HIT:    6647799 MISS:       3108 MSHR_MERGE:        810
cpu0->cpu0_L1D RFO          ACCESS:          0 HIT:          0 MISS:          0 MSHR_MERGE:          0
cpu0->cpu0_L1D PREFETCH     ACCESS:          0 HIT:          0 MISS:          0 MSHR_MERGE:          0
cpu0->cpu0_L1D WRITE        ACCESS:   10040519 HIT:   10040193 MISS:        326 MSHR_MERGE:        230
cpu0->cpu0_L1D TRANSLATION  ACCESS:        617 HIT:         59 MISS:        558 MSHR_MERGE:          3
cpu0->cpu0_L1D PREFETCH REQUESTED:          0 ISSUED:          0 USEFUL:          0 USELESS:          0
cpu0->cpu0_L1D AVERAGE MISS LATENCY: 190.3 cycles
cpu0->cpu0_ITLB TOTAL        ACCESS:    1584909 HIT:    1584535 MISS:        374 MSHR_MERGE:        247
cpu0->cpu0_ITLB LOAD         ACCESS:    1584909 HIT:    1584535 MISS:        374 MSHR_MERGE:        247
cpu0->cpu0_ITLB RFO          ACCESS:          0 HIT:          0 MISS:          0 MSHR_MERGE:          0
cpu0->cpu0_ITLB PREFETCH     ACCESS:          0 HIT:          0 MISS:          0 MSHR_MERGE:          0
cpu0->cpu0_ITLB WRITE        ACCESS:          0 HIT:          0 MISS:          0 MSHR_MERGE:          0
cpu0->cpu0_ITLB TRANSLATION  ACCESS:          0 HIT:          0 MISS:          0 MSHR_MERGE:          0
cpu0->cpu0_ITLB PREFETCH REQUESTED:          0 ISSUED:          0 USEFUL:          0 USELESS:          0
cpu0->cpu0_ITLB AVERAGE MISS LATENCY: 53.98 cycles
cpu0->cpu0_DTLB TOTAL        ACCESS:   15091450 HIT:   15076537 MISS:      14913 MSHR_MERGE:       1376
cpu0->cpu0_DTLB LOAD         ACCESS:   15091450 HIT:   15076537 MISS:      14913 MSHR_MERGE:       1376
cpu0->cpu0_DTLB RFO          ACCESS:          0 HIT:          0 MISS:          0 MSHR_MERGE:          0
cpu0->cpu0_DTLB PREFETCH     ACCESS:          0 HIT:          0 MISS:          0 MSHR_MERGE:          0
cpu0->cpu0_DTLB WRITE        ACCESS:          0 HIT:          0 MISS:          0 MSHR_MERGE:          0
cpu0->cpu0_DTLB TRANSLATION  ACCESS:          0 HIT:          0 MISS:          0 MSHR_MERGE:          0
cpu0->cpu0_DTLB PREFETCH REQUESTED:          0 ISSUED:          0 USEFUL:          0 USELESS:          0
cpu0->cpu0_DTLB AVERAGE MISS LATENCY: 22.01 cycles
cpu0->LLC TOTAL        ACCESS:       3043 HIT:          8 MISS:       3035 MSHR_MERGE:          0
cpu0->LLC LOAD         ACCESS:       2424 HIT:          2 MISS:       2422 MSHR_MERGE:          0
cpu0->LLC RFO          ACCESS:         70 HIT:          0 MISS:         70 MSHR_MERGE:          0
cpu0->LLC PREFETCH     ACCESS:          0 HIT:          0 MISS:          0 MSHR_MERGE:          0
cpu0->LLC WRITE        ACCESS:          6 HIT:          6 MISS:          0 MSHR_MERGE:          0
cpu0->LLC TRANSLATION  ACCESS:        543 HIT:          0 MISS:        543 MSHR_MERGE:          0
cpu0->LLC PREFETCH REQUESTED:          0 ISSUED:          0 USEFUL:          0 USELESS:          0
cpu0->LLC AVERAGE MISS LATENCY: 172.6 cycles

DRAM Statistics

Channel 0 RQ ROW_BUFFER_HIT:         42
  ROW_BUFFER_MISS:       2993
  AVG DBUS CONGESTED CYCLE: 2.757
Channel 0 WQ ROW_BUFFER_HIT:          0
  ROW_BUFFER_MISS:          0
  FULL:          0
Channel 0 REFRESHES ISSUED:       1940
