[VMEM] WARNING: physical memory size is smaller than virtual memory size.

*** ChampSim Multicore Out-of-Order Simulator ***
Warmup Instructions: 10000000
Simulation Instructions: 50000000
Number of CPUs: 1
Page size: 4096

Off-chip DRAM Size: 16 GiB Channels: 1 Width: 64-bit Data Rate: 3205 MT/s
Heartbeat CPU 0 instructions: 10000001 cycles: 2804500 heartbeat IPC: 3.566 cumulative IPC: 3.566 (Simulation time: 00 hr 00 min 25 sec)
Warmup finished CPU 0 instructions: 10000001 cycles: 2804500 cumulative IPC: 3.566 (Simulation time: 00 hr 00 min 25 sec)
Warmup complete CPU 0 instructions: 10000001 cycles: 2804500 cumulative IPC: 3.566 (Simulation time: 00 hr 00 min 25 sec)
Heartbeat CPU 0 instructions: 20000001 cycles: 14072777 heartbeat IPC: 0.8874 cumulative IPC: 0.8874 (Simulation time: 00 hr 01 min 22 sec)
Heartbeat CPU 0 instructions: 30000001 cycles: 25437586 heartbeat IPC: 0.8799 cumulative IPC: 0.8837 (Simulation time: 00 hr 02 min 20 sec)
Heartbeat CPU 0 instructions: 40000003 cycles: 36771951 heartbeat IPC: 0.8823 cumulative IPC: 0.8832 (Simulation time: 00 hr 03 min 18 sec)
Heartbeat CPU 0 instructions: 50000004 cycles: 48042164 heartbeat IPC: 0.8873 cumulative IPC: 0.8842 (Simulation time: 00 hr 04 min 15 sec)
Heartbeat CPU 0 instructions: 60000005 cycles: 59379606 heartbeat IPC: 0.882 cumulative IPC: 0.8838 (Simulation time: 00 hr 05 min 13 sec)
Simulation finished CPU 0 instructions: 50000004 cycles: 56575106 cumulative IPC: 0.8838 (Simulation time: 00 hr 05 min 13 sec)
Simulation complete CPU 0 instructions: 50000004 cycles: 56575106 cumulative IPC: 0.8838 (Simulation time: 00 hr 05 min 13 sec)

ChampSim completed all CPUs

=== Simulation ===
CPU 0 runs traces/603.bwaves_s-2931B.champsimtrace.xz

Region of Interest Statistics

CPU 0 cumulative IPC: 0.8838 instructions: 50000004 cycles: 56575106
CPU 0 Branch Prediction Accuracy: 80.62% MPKI: 1.636 Average ROB Occupancy at Mispredict: 307.9
Branch type MPKI
BRANCH_DIRECT_JUMP: 0
BRANCH_INDIRECT: 0
BRANCH_CONDITIONAL: 1.636
BRANCH_DIRECT_CALL: 0
BRANCH_INDIRECT_CALL: 0
BRANCH_RETURN: 0

cpu0->cpu0_STLB TOTAL        ACCESS:      94519 HIT:      83875 MISS:      10644 MSHR_MERGE:          0
cpu0->cpu0_STLB LOAD         ACCESS:      94519 HIT:      83875 MISS:      10644 MSHR_MERGE:          0
cpu0->cpu0_STLB RFO          ACCESS:          0 HIT:          0 MISS:          0 MSHR_MERGE:          0
cpu0->cpu0_STLB PREFETCH     ACCESS:          0 HIT:          0 MISS:          0 MSHR_MERGE:          0
cpu0->cpu0_STLB WRITE        ACCESS:          0 HIT:          0 MISS:          0 MSHR_MERGE:          0
cpu0->cpu0_STLB TRANSLATION  ACCESS:          0 HIT:          0 MISS:          0 MSHR_MERGE:          0
cpu0->cpu0_STLB PREFETCH REQUESTED:          0 ISSUED:          0 USEFUL:          0 USELESS:          0
cpu0->cpu0_STLB AVERAGE MISS LATENCY: 700.5 cycles
cpu0->cpu0_L2C TOTAL        ACCESS:    1171832 HIT:     427137 MISS:     744695 MSHR_MERGE:          0
cpu0->cpu0_L2C LOAD         ACCESS:     518508 HIT:      83820 MISS:     434688 MSHR_MERGE:          0
cpu0->cpu0_L2C RFO          ACCESS:     314225 HIT:      16529 MISS:     297696 MSHR_MERGE:          0
cpu0->cpu0_L2C PREFETCH     ACCESS:          0 HIT:          0 MISS:          0 MSHR_MERGE:          0
cpu0->cpu0_L2C WRITE        ACCESS:     317858 HIT:     317816 MISS:         42 MSHR_MERGE:          0
cpu0->cpu0_L2C TRANSLATION  ACCESS:      21241 HIT:       8972 MISS:      12269 MSHR_MERGE:          0
cpu0->cpu0_L2C PREFETCH REQUESTED:          0 ISSUED:          0 USEFUL:          0 USELESS:          0
cpu0->cpu0_L2C AVERAGE MISS LATENCY: 224.4 cycles
cpu0->cpu0_L1I TOTAL        ACCESS:    5829064 HIT:    5829056 MISS:          8 MSHR_MERGE:          1
cpu0->cpu0_L1I LOAD         ACCESS:    5829064 HIT:    5829056 MISS:          8 MSHR_MERGE:          1
cpu0->cpu0_L1I RFO          ACCESS:          0 HIT:          0 MISS:          0 MSHR_MERGE:          0
cpu0->cpu0_L1I PREFETCH     ACCESS:          0 HIT:          0 MISS:          0 MSHR_MERGE:          0
cpu0->cpu0_L1I WRITE        ACCESS:          0 HIT:          0 MISS:          0 MSHR_MERGE:          0
cpu0->cpu0_L1I TRANSLATION  ACCESS:          0 HIT:          0 MISS:          0 MSHR_MERGE:          0
cpu0->cpu0_L1I PREFETCH REQUESTED:          0 ISSUED:          0 USEFUL:          0 USELESS:          0
cpu0->cpu0_L1I AVERAGE MISS LATENCY: 236 cycles
cpu0->cpu0_L1D TOTAL        ACCESS:   17139256 HIT:   15522687 MISS:    1616569 MSHR_MERGE:     762425
cpu0->cpu0_L1D LOAD         ACCESS:    7971714 HIT:    7448245 MISS:     523469 MSHR_MERGE:       4939
cpu0->cpu0_L1D RFO          ACCESS:          0 HIT:          0 MISS:          0 MSHR_MERGE:          0
cpu0->cpu0_L1D PREFETCH     ACCESS:          0 HIT:          0 MISS:          0 MSHR_MERGE:          0
cpu0->cpu0_L1D WRITE        ACCESS:    9146227 HIT:    8074371 MISS:    1071856 MSHR_MERGE:     757483
cpu0->cpu0_L1D TRANSLATION  ACCESS:      21315 HIT:         71 MISS:      21244 MSHR_MERGE:          3
cpu0->cpu0_L1D PREFETCH REQUESTED:          0 ISSUED:          0 USEFUL:          0 USELESS:          0
cpu0->cpu0_L1D AVERAGE MISS LATENCY: 204.6 cycles
cpu0->cpu0_ITLB TOTAL        ACCESS:    4311137 HIT:    4311137 MISS:          0 MSHR_MERGE:          0
cpu0->cpu0_ITLB LOAD         ACCESS:    4311137 HIT:    4311137 MISS:          0 MSHR_MERGE:          0
cpu0->cpu0_ITLB RFO          ACCESS:          0 HIT:          0 MISS:          0 MSHR_MERGE:          0
cpu0->cpu0_ITLB PREFETCH     ACCESS:          0 HIT:          0 MISS:          0 MSHR_MERGE:          0
cpu0->cpu0_ITLB WRITE        ACCESS:          0 HIT:          0 MISS:          0 MSHR_MERGE:          0
cpu0->cpu0_ITLB TRANSLATION  ACCESS:          0 HIT:          0 MISS:          0 MSHR_MERGE:          0
cpu0->cpu0_ITLB PREFETCH REQUESTED:          0 ISSUED:          0 USEFUL:          0 USELESS:          0
cpu0->cpu0_ITLB AVERAGE MISS LATENCY: - cycles
cpu0->cpu0_DTLB TOTAL        ACCESS:   15908620 HIT:   15803655 MISS:     104965 MSHR_MERGE:      10446
cpu0->cpu0_DTLB LOAD         ACCESS:   15908620 HIT:   15803655 MISS:     104965 MSHR_MERGE:      10446
cpu0->cpu0_DTLB RFO          ACCESS:          0 HIT:          0 MISS:          0 MSHR_MERGE:          0
cpu0->cpu0_DTLB PREFETCH     ACCESS:          0 HIT:          0 MISS:          0 MSHR_MERGE:          0
cpu0->cpu0_DTLB WRITE        ACCESS:          0 HIT:          0 MISS:          0 MSHR_MERGE:          0
cpu0->cpu0_DTLB TRANSLATION  ACCESS:          0 HIT:          0 MISS:          0 MSHR_MERGE:          0
cpu0->cpu0_DTLB PREFETCH REQUESTED:          0 ISSUED:          0 USEFUL:          0 USELESS:          0
cpu0->cpu0_DTLB AVERAGE MISS LATENCY: 84.01 cycles
cpu0->LLC TOTAL        ACCESS:    1042343 HIT:     348474 MISS:     693869 MSHR_MERGE:          0
cpu0->LLC LOAD         ACCESS:     434688 HIT:      50813 MISS:     383875 MSHR_MERGE:          0
cpu0->LLC RFO          ACCESS:     297696 HIT:          0 MISS:     297696 MSHR_MERGE:          0
cpu0->LLC PREFETCH     ACCESS:          0 HIT:          0 MISS:          0 MSHR_MERGE:          0
cpu0->LLC WRITE        ACCESS:     297690 HIT:     297661 MISS:         29 MSHR_MERGE:          0
cpu0->LLC TRANSLATION  ACCESS:      12269 HIT:          0 MISS:      12269 MSHR_MERGE:          0
cpu0->LLC PREFETCH REQUESTED:          0 ISSUED:          0 USEFUL:          0 USELESS:          0
cpu0->LLC AVERAGE MISS LATENCY: 223.8 cycles

DRAM Statistics

Channel 0 RQ ROW_BUFFER_HIT:         16
  ROW_BUFFER_MISS:     693822
  AVG DBUS CONGESTED CYCLE: 11.33
Channel 0 WQ ROW_BUFFER_HIT:     110940
  ROW_BUFFER_MISS:     187044
  FULL:          0
Channel 0 REFRESHES ISSUED:       4715
