[VMEM] WARNING: physical memory size is smaller than virtual memory size.

*** ChampSim Multicore Out-of-Order Simulator ***
Warmup Instructions: 10000000
Simulation Instructions: 50000000
Number of CPUs: 1
Page size: 4096

Off-chip DRAM Size: 16 GiB Channels: 1 Width: 64-bit Data Rate: 3205 MT/s
Heartbeat CPU 0 instructions: 10000001 cycles: 3398527 heartbeat IPC: 2.942 cumulative IPC: 2.942 (Simulation time: 00 hr 00 min 41 sec)
Warmup finished CPU 0 instructions: 10000001 cycles: 3398527 cumulative IPC: 2.942 (Simulation time: 00 hr 00 min 41 sec)
Warmup complete CPU 0 instructions: 10000001 cycles: 3398527 cumulative IPC: 2.942 (Simulation time: 00 hr 00 min 41 sec)
Heartbeat CPU 0 instructions: 20000002 cycles: 12902617 heartbeat IPC: 1.052 cumulative IPC: 1.052 (Simulation time: 00 hr 01 min 48 sec)
Heartbeat CPU 0 instructions: 30000005 cycles: 22215849 heartbeat IPC: 1.074 cumulative IPC: 1.063 (Simulation time: 00 hr 02 min 52 sec)
Heartbeat CPU 0 instructions: 40000005 cycles: 31468485 heartbeat IPC: 1.081 cumulative IPC: 1.069 (Simulation time: 00 hr 03 min 56 sec)
Heartbeat CPU 0 instructions: 50000008 cycles: 40708923 heartbeat IPC: 1.082 cumulative IPC: 1.072 (Simulation time: 00 hr 04 min 59 sec)
Simulation finished CPU 0 instructions: 50000003 cycles: 46766025 cumulative IPC: 1.069 (Simulation time: 00 hr 06 min 07 sec)
Simulation complete CPU 0 instructions: 50000003 cycles: 46766025 cumulative IPC: 1.069 (Simulation time: 00 hr 06 min 07 sec)

ChampSim completed all CPUs

=== Simulation ===
CPU 0 runs traces/631.deepsjeng_s-928B.champsimtrace.xz

Region of Interest Statistics

CPU 0 cumulative IPC: 1.069 instructions: 50000003 cycles: 46766025
CPU 0 Branch Prediction Accuracy: 89.57% MPKI: 15.5 Average ROB Occupancy at Mispredict: 28.32
Branch type MPKI
BRANCH_DIRECT_JUMP: 0.01754
BRANCH_INDIRECT: 0.01102
BRANCH_CONDITIONAL: 14.98
BRANCH_DIRECT_CALL: 0.01738
BRANCH_INDIRECT_CALL: 0
BRANCH_RETURN: 0.4758

cpu0->cpu0_STLB TOTAL        ACCESS:      13762 HIT:       4623 MISS:       9139 MSHR_MERGE:          0
cpu0->cpu0_STLB LOAD         ACCESS:      13762 HIT:       4623 MISS:       9139 MSHR_MERGE:          0
cpu0->cpu0_STLB RFO          ACCESS:          0 HIT:          0 MISS:          0 MSHR_MERGE:          0
cpu0->cpu0_STLB PREFETCH     ACCESS:          0 HIT:          0 MISS:          0 MSHR_MERGE:          0
cpu0->cpu0_STLB WRITE        ACCESS:          0 HIT:          0 MISS:          0 MSHR_MERGE:          0
cpu0->cpu0_STLB TRANSLATION  ACCESS:          0 HIT:          0 MISS:          0 MSHR_MERGE:          0
cpu0->cpu0_STLB PREFETCH REQUESTED:          0 ISSUED:          0 USEFUL:          0 USELESS:          0
cpu0->cpu0_STLB AVERAGE MISS LATENCY: 849.1 cycles
cpu0->cpu0_L2C TOTAL        ACCESS:     144120 HIT:     104430 MISS:      39690 MSHR_MERGE:          0
cpu0->cpu0_L2C LOAD         ACCESS:      75527 HIT:      60165 MISS:      15362 MSHR_MERGE:          0
cpu0->cpu0_L2C RFO          ACCESS:      14685 HIT:      13742 MISS:        943 MSHR_MERGE:          0
cpu0->cpu0_L2C PREFETCH     ACCESS:          0 HIT:          0 MISS:          0 MSHR_MERGE:          0
cpu0->cpu0_L2C WRITE        ACCESS:      27094 HIT:      27045 MISS:         49 MSHR_MERGE:          0
cpu0->cpu0_L2C TRANSLATION  ACCESS:      26814 HIT:       3478 MISS:      23336 MSHR_MERGE:          0
cpu0->cpu0_L2C PREFETCH REQUESTED:          0 ISSUED:          0 USEFUL:          0 USELESS:          0
cpu0->cpu0_L2C AVERAGE MISS LATENCY: 153.4 cycles
cpu0->cpu0_L1I TOTAL        ACCESS:    5960817 HIT:    5902619 MISS:      58198 MSHR_MERGE:      13064
cpu0->cpu0_L1I LOAD         ACCESS:    5960817 HIT:    5902619 MISS:      58198 MSHR_MERGE:      13064
cpu0->cpu0_L1I RFO          ACCESS:          0 HIT:          0 MISS:          0 MSHR_MERGE:          0
cpu0->cpu0_L1I PREFETCH     ACCESS:          0 HIT:          0 MISS:          0 MSHR_MERGE:          0
cpu0->cpu0_L1I WRITE        ACCESS:          0 HIT:          0 MISS:          0 MSHR_MERGE:          0
cpu0->cpu0_L1I TRANSLATION  ACCESS:          0 HIT:          0 MISS:          0 MSHR_MERGE:          0
cpu0->cpu0_L1I PREFETCH REQUESTED:          0 ISSUED:          0 USEFUL:          0 USELESS:          0
cpu0->cpu0_L1I AVERAGE MISS LATENCY: 7.296 cycles
cpu0->cpu0_L1D TOTAL        ACCESS:   15257520 HIT:   15147547 MISS:     109973 MSHR_MERGE:      38077
cpu0->cpu0_L1D LOAD         ACCESS:    9261562 HIT:    9216683 MISS:      44879 MSHR_MERGE:      14482
cpu0->cpu0_L1D RFO          ACCESS:          0 HIT:          0 MISS:          0 MSHR_MERGE:          0
cpu0->cpu0_L1D PREFETCH     ACCESS:          0 HIT:          0 MISS:          0 MSHR_MERGE:          0
cpu0->cpu0_L1D WRITE        ACCESS:    5968409 HIT:    5930186 MISS:      38223 MSHR_MERGE:      23538
cpu0->cpu0_L1D TRANSLATION  ACCESS:      27549 HIT:        678 MISS:      26871 MSHR_MERGE:         57
cpu0->cpu0_L1D PREFETCH REQUESTED:          0 ISSUED:          0 USEFUL:          0 USELESS:          0
cpu0->cpu0_L1D AVERAGE MISS LATENCY: 93.11 cycles
cpu0->cpu0_ITLB TOTAL        ACCESS:    5076770 HIT:    5076770 MISS:          0 MSHR_MERGE:          0
cpu0->cpu0_ITLB LOAD         ACCESS:    5076770 HIT:    5076770 MISS:          0 MSHR_MERGE:          0
cpu0->cpu0_ITLB RFO          ACCESS:          0 HIT:          0 MISS:          0 MSHR_MERGE:          0
cpu0->cpu0_ITLB PREFETCH     ACCESS:          0 HIT:          0 MISS:          0 MSHR_MERGE:          0
cpu0->cpu0_ITLB WRITE        ACCESS:          0 HIT:          0 MISS:          0 MSHR_MERGE:          0
cpu0->cpu0_ITLB TRANSLATION  ACCESS:          0 HIT:          0 MISS:          0 MSHR_MERGE:          0
cpu0->cpu0_ITLB PREFETCH REQUESTED:          0 ISSUED:          0 USEFUL:          0 USELESS:          0
cpu0->cpu0_ITLB AVERAGE MISS LATENCY: - cycles
cpu0->cpu0_DTLB TOTAL        ACCESS:   14353583 HIT:   14323278 MISS:      30305 MSHR_MERGE:      16543
cpu0->cpu0_DTLB LOAD         ACCESS:   14353583 HIT:   14323278 MISS:      30305 MSHR_MERGE:      16543
cpu0->cpu0_DTLB RFO          ACCESS:          0 HIT:          0 MISS:          0 MSHR_MERGE:          0
cpu0->cpu0_DTLB PREFETCH     ACCESS:          0 HIT:          0 MISS:          0 MSHR_MERGE:          0
cpu0->cpu0_DTLB WRITE        ACCESS:          0 HIT:          0 MISS:          0 MSHR_MERGE:          0
cpu0->cpu0_DTLB TRANSLATION  ACCESS:          0 HIT:          0 MISS:          0 MSHR_MERGE:          0
cpu0->cpu0_DTLB PREFETCH REQUESTED:          0 ISSUED:          0 USEFUL:          0 USELESS:          0
cpu0->cpu0_DTLB AVERAGE MISS LATENCY: 569.5 cycles
cpu0->LLC TOTAL        ACCESS:      50442 HIT:      16448 MISS:      33994 MSHR_MERGE:          0
cpu0->LLC LOAD         ACCESS:      15362 HIT:       1070 MISS:      14292 MSHR_MERGE:          0
cpu0->LLC RFO          ACCESS:        943 HIT:        557 MISS:        386 MSHR_MERGE:          0
cpu0->LLC PREFETCH     ACCESS:          0 HIT:          0 MISS:          0 MSHR_MERGE:          0
cpu0->LLC WRITE        ACCESS:      10801 HIT:      10750 MISS:         51 MSHR_MERGE:          0
cpu0->LLC TRANSLATION  ACCESS:      23336 HIT:       4071 MISS:      19265 MSHR_MERGE:          0
cpu0->LLC PREFETCH REQUESTED:          0 ISSUED:          0 USEFUL:          0 USELESS:          0
cpu0->LLC AVERAGE MISS LATENCY: 160.7 cycles

DRAM Statistics

Channel 0 RQ ROW_BUFFER_HIT:         19
  ROW_BUFFER_MISS:      33924
  AVG DBUS CONGESTED CYCLE: 5.729
Channel 0 WQ ROW_BUFFER_HIT:         50
  ROW_BUFFER_MISS:       3210
  FULL:          0
Channel 0 REFRESHES ISSUED:       3897
