[VMEM] WARNING: physical memory size is smaller than virtual memory size.

*** ChampSim Multicore Out-of-Order Simulator ***
Warmup Instructions: 10000000
Simulation Instructions: 50000000
Number of CPUs: 1
Page size: 4096

Off-chip DRAM Size: 16 GiB Channels: 1 Width: 64-bit Data Rate: 3205 MT/s
Heartbeat CPU 0 instructions: 10000002 cycles: 6368914 heartbeat IPC: 1.57 cumulative IPC: 1.57 (Simulation time: 00 hr 00 min 46 sec)
Warmup finished CPU 0 instructions: 10000002 cycles: 6368914 cumulative IPC: 1.57 (Simulation time: 00 hr 00 min 46 sec)
Warmup complete CPU 0 instructions: 10000002 cycles: 6368914 cumulative IPC: 1.57 (Simulation time: 00 hr 00 min 46 sec)
Heartbeat CPU 0 instructions: 20000002 cycles: 46202208 heartbeat IPC: 0.251 cumulative IPC: 0.251 (Simulation time: 00 hr 03 min 06 sec)
Heartbeat CPU 0 instructions: 30000003 cycles: 83868800 heartbeat IPC: 0.2655 cumulative IPC: 0.2581 (Simulation time: 00 hr 05 min 17 sec)
Heartbeat CPU 0 instructions: 40000003 cycles: 122404771 heartbeat IPC: 0.2595 cumulative IPC: 0.2585 (Simulation time: 00 hr 07 min 34 sec)
Heartbeat CPU 0 instructions: 50000003 cycles: 159939501 heartbeat IPC: 0.2664 cumulative IPC: 0.2605 (Simulation time: 00 hr 09 min 46 sec)
Heartbeat CPU 0 instructions: 60000006 cycles: 195767379 heartbeat IPC: 0.2791 cumulative IPC: 0.264 (Simulation time: 00 hr 11 min 54 sec)
Simulation finished CPU 0 instructions: 50000004 cycles: 189398465 cumulative IPC: 0.264 (Simulation time: 00 hr 11 min 54 sec)
Simulation complete CPU 0 instructions: 50000004 cycles: 189398465 cumulative IPC: 0.264 (Simulation time: 00 hr 11 min 54 sec)

ChampSim completed all CPUs

=== Simulation ===
CPU 0 runs traces/620.omnetpp_s-141B.champsimtrace.xz

Region of Interest Statistics

CPU 0 cumulative IPC: 0.264 instructions: 50000004 cycles: 189398465
CPU 0 Branch Prediction Accuracy: 92.79% MPKI: 15.18 Average ROB Occupancy at Mispredict: 38.69
Branch type MPKI
BRANCH_DIRECT_JUMP: 0.8368
BRANCH_INDIRECT: 0.3548
BRANCH_CONDITIONAL: 12.68
BRANCH_DIRECT_CALL: 0.00142
BRANCH_INDIRECT_CALL: 0.8572
BRANCH_RETURN: 0.4452

cpu0->cpu0_STLB TOTAL        ACCESS:    1112513 HIT:     867673 MISS:     244840 MSHR_MERGE:          0
cpu0->cpu0_STLB LOAD         ACCESS:    1112513 HIT:     867673 MISS:     244840 MSHR_MERGE:          0
cpu0->cpu0_STLB RFO          ACCESS:          0 HIT:          0 MISS:          0 MSHR_MERGE:          0
cpu0->cpu0_STLB PREFETCH     ACCESS:          0 HIT:          0 MISS:          0 MSHR_MERGE:          0
cpu0->cpu0_STLB WRITE        ACCESS:          0 HIT:          0 MISS:          0 MSHR_MERGE:          0
cpu0->cpu0_STLB TRANSLATION  ACCESS:          0 HIT:          0 MISS:          0 MSHR_MERGE:          0
cpu0->cpu0_STLB PREFETCH REQUESTED:          0 ISSUED:          0 USEFUL:          0 USELESS:          0
cpu0->cpu0_STLB AVERAGE MISS LATENCY: 325.3 cycles
cpu0->cpu0_L2C TOTAL        ACCESS:    2042128 HIT:     892120 MISS:    1150008 MSHR_MERGE:          0
cpu0->cpu0_L2C LOAD         ACCESS:     900968 HIT:     259875 MISS:     641093 MSHR_MERGE:          0
cpu0->cpu0_L2C RFO          ACCESS:     118830 HIT:      24169 MISS:      94661 MSHR_MERGE:          0
cpu0->cpu0_L2C PREFETCH     ACCESS:          0 HIT:          0 MISS:          0 MSHR_MERGE:          0
cpu0->cpu0_L2C WRITE        ACCESS:     478303 HIT:     477098 MISS:       1205 MSHR_MERGE:          0
cpu0->cpu0_L2C TRANSLATION  ACCESS:     544027 HIT:     130978 MISS:     413049 MSHR_MERGE:          0
cpu0->cpu0_L2C PREFETCH REQUESTED:          0 ISSUED:          0 USEFUL:          0 USELESS:          0
cpu0->cpu0_L2C AVERAGE MISS LATENCY: 155.5 cycles
cpu0->cpu0_L1I TOTAL        ACCESS:    6732190 HIT:    6698163 MISS:      34027 MSHR_MERGE:       6517
cpu0->cpu0_L1I LOAD         ACCESS:    6732190 HIT:    6698163 MISS:      34027 MSHR_MERGE:       6517
cpu0->cpu0_L1I RFO          ACCESS:          0 HIT:          0 MISS:          0 MSHR_MERGE:          0
cpu0->cpu0_L1I PREFETCH     ACCESS:          0 HIT:          0 MISS:          0 MSHR_MERGE:          0
cpu0->cpu0_L1I WRITE        ACCESS:          0 HIT:          0 MISS:          0 MSHR_MERGE:          0
cpu0->cpu0_L1I TRANSLATION  ACCESS:          0 HIT:          0 MISS:          0 MSHR_MERGE:          0
cpu0->cpu0_L1I PREFETCH REQUESTED:          0 ISSUED:          0 USEFUL:          0 USELESS:          0
cpu0->cpu0_L1I AVERAGE MISS LATENCY: 23.17 cycles
cpu0->cpu0_L1D TOTAL        ACCESS:   20431925 HIT:   18381950 MISS:    2049975 MSHR_MERGE:     513659
cpu0->cpu0_L1D LOAD         ACCESS:   10776026 HIT:    9642524 MISS:    1133502 MSHR_MERGE:     260043
cpu0->cpu0_L1D RFO          ACCESS:          0 HIT:          0 MISS:          0 MSHR_MERGE:          0
cpu0->cpu0_L1D PREFETCH     ACCESS:          0 HIT:          0 MISS:          0 MSHR_MERGE:          0
cpu0->cpu0_L1D WRITE        ACCESS:    9066434 HIT:    8694910 MISS:     371524 MSHR_MERGE:     252694
cpu0->cpu0_L1D TRANSLATION  ACCESS:     589465 HIT:      44516 MISS:     544949 MSHR_MERGE:        922
cpu0->cpu0_L1D PREFETCH REQUESTED:          0 ISSUED:          0 USEFUL:          0 USELESS:          0
cpu0->cpu0_L1D AVERAGE MISS LATENCY: 124.9 cycles
cpu0->cpu0_ITLB TOTAL        ACCESS:    5968398 HIT:    5817717 MISS:     150681 MSHR_MERGE:      71811
cpu0->cpu0_ITLB LOAD         ACCESS:    5968398 HIT:    5817717 MISS:     150681 MSHR_MERGE:      71811
cpu0->cpu0_ITLB RFO          ACCESS:          0 HIT:          0 MISS:          0 MSHR_MERGE:          0
cpu0->cpu0_ITLB PREFETCH     ACCESS:          0 HIT:          0 MISS:          0 MSHR_MERGE:          0
cpu0->cpu0_ITLB WRITE        ACCESS:          0 HIT:          0 MISS:          0 MSHR_MERGE:          0
cpu0->cpu0_ITLB TRANSLATION  ACCESS:          0 HIT:          0 MISS:          0 MSHR_MERGE:          0
cpu0->cpu0_ITLB PREFETCH REQUESTED:          0 ISSUED:          0 USEFUL:          0 USELESS:          0
cpu0->cpu0_ITLB AVERAGE MISS LATENCY: 7.863 cycles
cpu0->cpu0_DTLB TOTAL        ACCESS:   18831945 HIT:   17599361 MISS:    1232584 MSHR_MERGE:     198941
cpu0->cpu0_DTLB LOAD         ACCESS:   18831945 HIT:   17599361 MISS:    1232584 MSHR_MERGE:     198941
cpu0->cpu0_DTLB RFO          ACCESS:          0 HIT:          0 MISS:          0 MSHR_MERGE:          0
cpu0->cpu0_DTLB PREFETCH     ACCESS:          0 HIT:          0 MISS:          0 MSHR_MERGE:          0
cpu0->cpu0_DTLB WRITE        ACCESS:          0 HIT:          0 MISS:          0 MSHR_MERGE:          0
cpu0->cpu0_DTLB TRANSLATION  ACCESS:          0 HIT:          0 MISS:          0 MSHR_MERGE:          0
cpu0->cpu0_DTLB PREFETCH REQUESTED:          0 ISSUED:          0 USEFUL:          0 USELESS:          0
cpu0->cpu0_DTLB AVERAGE MISS LATENCY: 82.07 cycles
cpu0->LLC TOTAL        ACCESS:    1511549 HIT:     663064 MISS:     848485 MSHR_MERGE:          0
cpu0->LLC LOAD         ACCESS:     641093 HIT:     143567 MISS:     497526 MSHR_MERGE:          0
cpu0->LLC RFO          ACCESS:      94661 HIT:      34042 MISS:      60619 MSHR_MERGE:          0
cpu0->LLC PREFETCH     ACCESS:          0 HIT:          0 MISS:          0 MSHR_MERGE:          0
cpu0->LLC WRITE        ACCESS:     362746 HIT:     361293 MISS:       1453 MSHR_MERGE:          0
cpu0->LLC TRANSLATION  ACCESS:     413049 HIT:     124162 MISS:     288887 MSHR_MERGE:          0
cpu0->LLC PREFETCH REQUESTED:          0 ISSUED:          0 USEFUL:          0 USELESS:          0
cpu0->LLC AVERAGE MISS LATENCY: 189.4 cycles

DRAM Statistics

Channel 0 RQ ROW_BUFFER_HIT:       3003
  ROW_BUFFER_MISS:     844017
  AVG DBUS CONGESTED CYCLE: 19.7
Channel 0 WQ ROW_BUFFER_HIT:      89250
  ROW_BUFFER_MISS:     176053
  FULL:          0
Channel 0 REFRESHES ISSUED:      15783
