[VMEM] WARNING: physical memory size is smaller than virtual memory size.

*** ChampSim Multicore Out-of-Order Simulator ***
Warmup Instructions: 10000000
Simulation Instructions: 50000000
Number of CPUs: 1
Page size: 4096

Off-chip DRAM Size: 16 GiB Channels: 1 Width: 64-bit Data Rate: 3205 MT/s
Heartbeat CPU 0 instructions: 10000000 cycles: 2862801 heartbeat IPC: 3.493 cumulative IPC: 3.493 (Simulation time: 00 hr 00 min 22 sec)
Warmup finished CPU 0 instructions: 10000000 cycles: 2862801 cumulative IPC: 3.493 (Simulation time: 00 hr 00 min 22 sec)
Warmup complete CPU 0 instructions: 10000000 cycles: 2862801 cumulative IPC: 3.493 (Simulation time: 00 hr 00 min 22 sec)
Heartbeat CPU 0 instructions: 20000000 cycles: 10428015 heartbeat IPC: 1.322 cumulative IPC: 1.322 (Simulation time: 00 hr 01 min 01 sec)
Heartbeat CPU 0 instructions: 30000002 cycles: 21123933 heartbeat IPC: 0.9349 cumulative IPC: 1.095 (Simulation time: 00 hr 01 min 54 sec)
Heartbeat CPU 0 instructions: 40000004 cycles: 29799789 heartbeat IPC: 1.153 cumulative IPC: 1.114 (Simulation time: 00 hr 02 min 38 sec)
Heartbeat CPU 0 instructions: 50000006 cycles: 39571636 heartbeat IPC: 1.023 cumulative IPC: 1.09 (Simulation time: 00 hr 03 min 44 sec)
Simulation finished CPU 0 instructions: 50000003 cycles: 46802795 cumulative IPC: 1.068 (Simulation time: 00 hr 05 min 00 sec)
Simulation complete CPU 0 instructions: 50000003 cycles: 46802795 cumulative IPC: 1.068 (Simulation time: 00 hr 05 min 00 sec)

ChampSim completed all CPUs

=== Simulation ===
CPU 0 runs traces/627.cam4_s-490B.champsimtrace.xz

Region of Interest Statistics

CPU 0 cumulative IPC: 1.068 instructions: 50000003 cycles: 46802795
CPU 0 Branch Prediction Accuracy: 92.36% MPKI: 7.375 Average ROB Occupancy at Mispredict: 44.88
Branch type MPKI
BRANCH_DIRECT_JUMP: 0.00628
BRANCH_INDIRECT: 0
BRANCH_CONDITIONAL: 7.369
BRANCH_DIRECT_CALL: 0.0001
BRANCH_INDIRECT_CALL: 0
BRANCH_RETURN: 0.00014

cpu0->cpu0_STLB TOTAL        ACCESS:      15736 HIT:      14879 MISS:        857 MSHR_MERGE:          0
cpu0->cpu0_STLB LOAD         ACCESS:      15736 HIT:      14879 MISS:        857 MSHR_MERGE:          0
cpu0->cpu0_STLB RFO          ACCESS:          0 HIT:          0 MISS:          0 MSHR_MERGE:          0
cpu0->cpu0_STLB PREFETCH     ACCESS:          0 HIT:          0 MISS:          0 MSHR_MERGE:          0
cpu0->cpu0_STLB WRITE        ACCESS:          0 HIT:          0 MISS:          0 MSHR_MERGE:          0
cpu0->cpu0_STLB TRANSLATION  ACCESS:          0 HIT:          0 MISS:          0 MSHR_MERGE:          0
cpu0->cpu0_STLB PREFETCH REQUESTED:          0 ISSUED:          0 USEFUL:          0 USELESS:          0
cpu0->cpu0_STLB AVERAGE MISS LATENCY: 696.6 cycles
cpu0->cpu0_L2C TOTAL        ACCESS:    1299459 HIT:     690453 MISS:     609006 MSHR_MERGE:          0
cpu0->cpu0_L2C LOAD         ACCESS:     630684 HIT:     286816 MISS:     343868 MSHR_MERGE:          0
cpu0->cpu0_L2C RFO          ACCESS:     279566 HIT:      16096 MISS:     263470 MSHR_MERGE:          0
cpu0->cpu0_L2C PREFETCH     ACCESS:          0 HIT:          0 MISS:          0 MSHR_MERGE:          0
cpu0->cpu0_L2C WRITE        ACCESS:     388139 HIT:     387537 MISS:        602 MSHR_MERGE:          0
cpu0->cpu0_L2C TRANSLATION  ACCESS:       1070 HIT:          4 MISS:       1066 MSHR_MERGE:          0
cpu0->cpu0_L2C PREFETCH REQUESTED:          0 ISSUED:          0 USEFUL:          0 USELESS:          0
cpu0->cpu0_L2C AVERAGE MISS LATENCY: 120.7 cycles
cpu0->cpu0_L1I TOTAL        ACCESS:    3462848 HIT:    3460420 MISS:       2428 MSHR_MERGE:       1220
cpu0->cpu0_L1I LOAD         ACCESS:    3462848 HIT:    3460420 MISS:       2428 MSHR_MERGE:       1220
cpu0->cpu0_L1I RFO          ACCESS:          0 HIT:          0 MISS:          0 MSHR_MERGE:          0
cpu0->cpu0_L1I PREFETCH     ACCESS:          0 HIT:          0 MISS:          0 MSHR_MERGE:          0
cpu0->cpu0_L1I WRITE        ACCESS:          0 HIT:          0 MISS:          0 MSHR_MERGE:          0
cpu0->cpu0_L1I TRANSLATION  ACCESS:          0 HIT:          0 MISS:          0 MSHR_MERGE:          0
cpu0->cpu0_L1I PREFETCH REQUESTED:          0 ISSUED:          0 USEFUL:          0 USELESS:          0
cpu0->cpu0_L1I AVERAGE MISS LATENCY: 259.9 cycles
cpu0->cpu0_L1D TOTAL        ACCESS:    9939737 HIT:    7261161 MISS:    2678576 MSHR_MERGE:    1768463
cpu0->cpu0_L1D LOAD         ACCESS:    6629386 HIT:    5269835 MISS:    1359551 MSHR_MERGE:     730075
cpu0->cpu0_L1D RFO          ACCESS:          0 HIT:          0 MISS:          0 MSHR_MERGE:          0
cpu0->cpu0_L1D PREFETCH     ACCESS:          0 HIT:          0 MISS:          0 MSHR_MERGE:          0
cpu0->cpu0_L1D WRITE        ACCESS:    3308632 HIT:    1990678 MISS:    1317954 MSHR_MERGE:    1038387
cpu0->cpu0_L1D TRANSLATION  ACCESS:       1719 HIT:        648 MISS:       1071 MSHR_MERGE:          1
cpu0->cpu0_L1D PREFETCH REQUESTED:          0 ISSUED:          0 USEFUL:          0 USELESS:          0
cpu0->cpu0_L1D AVERAGE MISS LATENCY: 89.14 cycles
cpu0->cpu0_ITLB TOTAL        ACCESS:    3119773 HIT:    3119751 MISS:         22 MSHR_MERGE:         16
cpu0->cpu0_ITLB LOAD         ACCESS:    3119773 HIT:    3119751 MISS:         22 MSHR_MERGE:         16
cpu0->cpu0_ITLB RFO          ACCESS:          0 HIT:          0 MISS:          0 MSHR_MERGE:          0
cpu0->cpu0_ITLB PREFETCH     ACCESS:          0 HIT:          0 MISS:          0 MSHR_MERGE:          0
cpu0->cpu0_ITLB WRITE        ACCESS:          0 HIT:          0 MISS:          0 MSHR_MERGE:          0
cpu0->cpu0_ITLB TRANSLATION  ACCESS:          0 HIT:          0 MISS:          0 MSHR_MERGE:          0
cpu0->cpu0_ITLB PREFETCH REQUESTED:          0 ISSUED:          0 USEFUL:          0 USELESS:          0
cpu0->cpu0_ITLB AVERAGE MISS LATENCY: 814.5 cycles
cpu0->cpu0_DTLB TOTAL        ACCESS:    9643235 HIT:    9615570 MISS:      27665 MSHR_MERGE:      11935
cpu0->cpu0_DTLB LOAD         ACCESS:    9643235 HIT:    9615570 MISS:      27665 MSHR_MERGE:      11935
cpu0->cpu0_DTLB RFO          ACCESS:          0 HIT:          0 MISS:          0 MSHR_MERGE:          0
cpu0->cpu0_DTLB PREFETCH     ACCESS:          0 HIT:          0 MISS:          0 MSHR_MERGE:          0
cpu0->cpu0_DTLB WRITE        ACCESS:          0 HIT:          0 MISS:          0 MSHR_MERGE:          0
cpu0->cpu0_DTLB TRANSLATION  ACCESS:          0 HIT:          0 MISS:          0 MSHR_MERGE:          0
cpu0->cpu0_DTLB PREFETCH REQUESTED:          0 ISSUED:          0 USEFUL:          0 USELESS:          0
cpu0->cpu0_DTLB AVERAGE MISS LATENCY: 42.7 cycles
cpu0->LLC TOTAL        ACCESS:     926408 HIT:     687884 MISS:     238524 MSHR_MERGE:          0
cpu0->LLC LOAD         ACCESS:     343868 HIT:     239503 MISS:     104365 MSHR_MERGE:          0
cpu0->LLC RFO          ACCESS:     263469 HIT:     130384 MISS:     133085 MSHR_MERGE:          0
cpu0->LLC PREFETCH     ACCESS:          0 HIT:          0 MISS:          0 MSHR_MERGE:          0
cpu0->LLC WRITE        ACCESS:     318005 HIT:     317991 MISS:         14 MSHR_MERGE:          0
cpu0->LLC TRANSLATION  ACCESS:       1066 HIT:          6 MISS:       1060 MSHR_MERGE:          0
cpu0->LLC PREFETCH REQUESTED:          0 ISSUED:          0 USEFUL:          0 USELESS:          0
cpu0->LLC AVERAGE MISS LATENCY: 268.8 cycles

DRAM Statistics

Channel 0 RQ ROW_BUFFER_HIT:      13726
  ROW_BUFFER_MISS:     224446
  AVG DBUS CONGESTED CYCLE: 9.712
Channel 0 WQ ROW_BUFFER_HIT:      42941
  ROW_BUFFER_MISS:     138999
  FULL:          0
Channel 0 REFRESHES ISSUED:       3900
