[VMEM] WARNING: physical memory size is smaller than virtual memory size.

*** ChampSim Multicore Out-of-Order Simulator ***
Warmup Instructions: 10000000
Simulation Instructions: 50000000
Number of CPUs: 1
Page size: 4096

Off-chip DRAM Size: 16 GiB Channels: 1 Width: 64-bit Data Rate: 3205 MT/s
Heartbeat CPU 0 instructions: 10000000 cycles: 2534693 heartbeat IPC: 3.945 cumulative IPC: 3.945 (Simulation time: 00 hr 00 min 18 sec)
Warmup finished CPU 0 instructions: 10000000 cycles: 2534693 cumulative IPC: 3.945 (Simulation time: 00 hr 00 min 18 sec)
Warmup complete CPU 0 instructions: 10000000 cycles: 2534693 cumulative IPC: 3.945 (Simulation time: 00 hr 00 min 18 sec)
Heartbeat CPU 0 instructions: 20000001 cycles: 9504033 heartbeat IPC: 1.435 cumulative IPC: 1.435 (Simulation time: 00 hr 00 min 48 sec)
Heartbeat CPU 0 instructions: 30000001 cycles: 16650737 heartbeat IPC: 1.399 cumulative IPC: 1.417 (Simulation time: 00 hr 01 min 18 sec)
Heartbeat CPU 0 instructions: 40000004 cycles: 23823909 heartbeat IPC: 1.394 cumulative IPC: 1.409 (Simulation time: 00 hr 01 min 49 sec)
Heartbeat CPU 0 instructions: 50000007 cycles: 30930098 heartbeat IPC: 1.407 cumulative IPC: 1.409 (Simulation time: 00 hr 02 min 20 sec)
Simulation finished CPU 0 instructions: 50000001 cycles: 35592894 cumulative IPC: 1.405 (Simulation time: 00 hr 02 min 50 sec)
Simulation complete CPU 0 instructions: 50000001 cycles: 35592894 cumulative IPC: 1.405 (Simulation time: 00 hr 02 min 50 sec)

ChampSim completed all CPUs

=== Simulation ===
CPU 0 runs traces/657.xz_s-4994B.champsimtrace.xz

Region of Interest Statistics

CPU 0 cumulative IPC: 1.405 instructions: 50000001 cycles: 35592894
CPU 0 Branch Prediction Accuracy: 85.85% MPKI: 14.83 Average ROB Occupancy at Mispredict: 29.04
Branch type MPKI
BRANCH_DIRECT_JUMP: 0.00012
BRANCH_INDIRECT: 0.00102
BRANCH_CONDITIONAL: 14.83
BRANCH_DIRECT_CALL: 0
BRANCH_INDIRECT_CALL: 0
BRANCH_RETURN: 2e-05

cpu0->cpu0_STLB TOTAL        ACCESS:        308 HIT:        153 MISS:        155 MSHR_MERGE:          0
cpu0->cpu0_STLB LOAD         ACCESS:        308 HIT:        153 MISS:        155 MSHR_MERGE:          0
cpu0->cpu0_STLB RFO          ACCESS:          0 HIT:          0 MISS:          0 MSHR_MERGE:          0
cpu0->cpu0_STLB PREFETCH     ACCESS:          0 HIT:          0 MISS:          0 MSHR_MERGE:          0
cpu0->cpu0_STLB WRITE        ACCESS:          0 HIT:          0 MISS:          0 MSHR_MERGE:          0
cpu0->cpu0_STLB TRANSLATION  ACCESS:          0 HIT:          0 MISS:          0 MSHR_MERGE:          0
cpu0->cpu0_STLB PREFETCH REQUESTED:          0 ISSUED:          0 USEFUL:          0 USELESS:          0
cpu0->cpu0_STLB AVERAGE MISS LATENCY: 685.8 cycles
cpu0->cpu0_L2C TOTAL        ACCESS:      31364 HIT:      21983 MISS:       9381 MSHR_MERGE:          0
cpu0->cpu0_L2C LOAD         ACCESS:       9182 HIT:       6564 MISS:       2618 MSHR_MERGE:          0
cpu0->cpu0_L2C RFO          ACCESS:       9495 HIT:       2984 MISS:       6511 MSHR_MERGE:          0
cpu0->cpu0_L2C PREFETCH     ACCESS:          0 HIT:          0 MISS:          0 MSHR_MERGE:          0
cpu0->cpu0_L2C WRITE        ACCESS:      12435 HIT:      12377 MISS:         58 MSHR_MERGE:          0
cpu0->cpu0_L2C TRANSLATION  ACCESS:        252 HIT:         58 MISS:        194 MSHR_MERGE:          0
cpu0->cpu0_L2C PREFETCH REQUESTED:          0 ISSUED:          0 USEFUL:          0 USELESS:          0
cpu0->cpu0_L2C AVERAGE MISS LATENCY: 159 cycles
cpu0->cpu0_L1I TOTAL        ACCESS:    1214380 HIT:    1214373 MISS:          7 MSHR_MERGE:          1
cpu0->cpu0_L1I LOAD         ACCESS:    1214380 HIT:    1214373 MISS:          7 MSHR_MERGE:          1
cpu0->cpu0_L1I RFO          ACCESS:          0 HIT:          0 MISS:          0 MSHR_MERGE:          0
cpu0->cpu0_L1I PREFETCH     ACCESS:          0 HIT:          0 MISS:          0 MSHR_MERGE:          0
cpu0->cpu0_L1I WRITE        ACCESS:          0 HIT:          0 MISS:          0 MSHR_MERGE:          0
cpu0->cpu0_L1I TRANSLATION  ACCESS:          0 HIT:          0 MISS:          0 MSHR_MERGE:          0
cpu0->cpu0_L1I PREFETCH REQUESTED:          0 ISSUED:          0 USEFUL:          0 USELESS:          0
cpu0->cpu0_L1I AVERAGE MISS LATENCY: 176.3 cycles
cpu0->cpu0_L1D TOTAL        ACCESS:    7866203 HIT:    7800757 MISS:      65446 MSHR_MERGE:      46523
cpu0->cpu0_L1D LOAD         ACCESS:    4741567 HIT:    4729659 MISS:      11908 MSHR_MERGE:       2732
cpu0->cpu0_L1D RFO          ACCESS:          0 HIT:          0 MISS:          0 MSHR_MERGE:          0
cpu0->cpu0_L1D PREFETCH     ACCESS:          0 HIT:          0 MISS:          0 MSHR_MERGE:          0
cpu0->cpu0_L1D WRITE        ACCESS:    3124326 HIT:    3071040 MISS:      53286 MSHR_MERGE:      43791
cpu0->cpu0_L1D TRANSLATION  ACCESS:        310 HIT:         58 MISS:        252 MSHR_MERGE:          0
cpu0->cpu0_L1D PREFETCH REQUESTED:          0 ISSUED:          0 USEFUL:          0 USELESS:          0
cpu0->cpu0_L1D AVERAGE MISS LATENCY: 87.26 cycles
cpu0->cpu0_ITLB TOTAL        ACCESS:    1084338 HIT:    1084338 MISS:          0 MSHR_MERGE:          0
cpu0->cpu0_ITLB LOAD         ACCESS:    1084338 HIT:    1084338 MISS:          0 MSHR_MERGE:          0
cpu0->cpu0_ITLB RFO          ACCESS:          0 HIT:          0 MISS:          0 MSHR_MERGE:          0
cpu0->cpu0_ITLB PREFETCH     ACCESS:          0 HIT:          0 MISS:          0 MSHR_MERGE:          0
cpu0->cpu0_ITLB WRITE        ACCESS:          0 HIT:          0 MISS:          0 MSHR_MERGE:          0
cpu0->cpu0_ITLB TRANSLATION  ACCESS:          0 HIT:          0 MISS:          0 MSHR_MERGE:          0
cpu0->cpu0_ITLB PREFETCH REQUESTED:          0 ISSUED:          0 USEFUL:          0 USELESS:          0
cpu0->cpu0_ITLB AVERAGE MISS LATENCY: - cycles
cpu0->cpu0_DTLB TOTAL        ACCESS:    7412910 HIT:    7411800 MISS:       1110 MSHR_MERGE:        802
cpu0->cpu0_DTLB LOAD         ACCESS:    7412910 HIT:    7411800 MISS:       1110 MSHR_MERGE:        802
cpu0->cpu0_DTLB RFO          ACCESS:          0 HIT:          0 MISS:          0 MSHR_MERGE:          0
cpu0->cpu0_DTLB PREFETCH     ACCESS:          0 HIT:          0 MISS:          0 MSHR_MERGE:          0
cpu0->cpu0_DTLB WRITE        ACCESS:          0 HIT:          0 MISS:          0 MSHR_MERGE:          0
cpu0->cpu0_DTLB TRANSLATION  ACCESS:          0 HIT:          0 MISS:          0 MSHR_MERGE:          0
cpu0->cpu0_DTLB PREFETCH REQUESTED:          0 ISSUED:          0 USEFUL:          0 USELESS:          0
cpu0->cpu0_DTLB AVERAGE MISS LATENCY: 350.6 cycles
cpu0->LLC TOTAL        ACCESS:      11563 HIT:       2304 MISS:       9259 MSHR_MERGE:          0
cpu0->LLC LOAD         ACCESS:       2618 HIT:         64 MISS:       2554 MSHR_MERGE:          0
cpu0->LLC RFO          ACCESS:       6511 HIT:          0 MISS:       6511 MSHR_MERGE:          0
cpu0->LLC PREFETCH     ACCESS:          0 HIT:          0 MISS:          0 MSHR_MERGE:          0
cpu0->LLC WRITE        ACCESS:       2240 HIT:       2240 MISS:          0 MSHR_MERGE:          0
cpu0->LLC TRANSLATION  ACCESS:        194 HIT:          0 MISS:        194 MSHR_MERGE:          0
cpu0->LLC PREFETCH REQUESTED:          0 ISSUED:          0 USEFUL:          0 USELESS:          0
cpu0->LLC AVERAGE MISS LATENCY: 145 cycles

DRAM Statistics

Channel 0 RQ ROW_BUFFER_HIT:       2228
  ROW_BUFFER_MISS:       7031
  AVG DBUS CONGESTED CYCLE: 2.661
Channel 0 WQ ROW_BUFFER_HIT:          0
  ROW_BUFFER_MISS:          0
  FULL:          0
Channel 0 REFRESHES ISSUED:       2966
