[VMEM] WARNING: physical memory size is smaller than virtual memory size.

*** ChampSim Multicore Out-of-Order Simulator ***
Warmup Instructions: 10000000
Simulation Instructions: 50000000
Number of CPUs: 1
Page size: 4096

Off-chip DRAM Size: 16 GiB Channels: 1 Width: 64-bit Data Rate: 3205 MT/s
Heartbeat CPU 0 instructions: 10000001 cycles: 2804500 heartbeat IPC: 3.566 cumulative IPC: 3.566 (Simulation time: 00 hr 00 min 25 sec)
Warmup finished CPU 0 instructions: 10000001 cycles: 2804500 cumulative IPC: 3.566 (Simulation time: 00 hr 00 min 25 sec)
Warmup complete CPU 0 instructions: 10000001 cycles: 2804500 cumulative IPC: 3.566 (Simulation time: 00 hr 00 min 25 sec)
Heartbeat CPU 0 instructions: 20000001 cycles: 13964551 heartbeat IPC: 0.8961 cumulative IPC: 0.8961 (Simulation time: 00 hr 01 min 28 sec)
Heartbeat CPU 0 instructions: 30000005 cycles: 25217304 heartbeat IPC: 0.8887 cumulative IPC: 0.8923 (Simulation time: 00 hr 02 min 31 sec)
Heartbeat CPU 0 instructions: 40000008 cycles: 36451877 heartbeat IPC: 0.8901 cumulative IPC: 0.8916 (Simulation time: 00 hr 03 min 34 sec)
Heartbeat CPU 0 instructions: 50000009 cycles: 47632032 heartbeat IPC: 0.8944 cumulative IPC: 0.8923 (Simulation time: 00 hr 04 min 37 sec)
Simulation finished CPU 0 instructions: 50000004 cycles: 56063190 cumulative IPC: 0.8919 (Simulation time: 00 hr 05 min 40 sec)
Simulation complete CPU 0 instructions: 50000004 cycles: 56063190 cumulative IPC: 0.8919 (Simulation time: 00 hr 05 min 40 sec)

ChampSim completed all CPUs

=== Simulation ===
CPU 0 runs traces/603.bwaves_s-2931B.champsimtrace.xz

Region of Interest Statistics

CPU 0 cumulative IPC: 0.8919 instructions: 50000004 cycles: 56063190
CPU 0 Branch Prediction Accuracy: 99.97% MPKI: 0.00264 Average ROB Occupancy at Mispredict: 336.6
Branch type MPKI
BRANCH_DIRECT_JUMP: 0
BRANCH_INDIRECT: 0
BRANCH_CONDITIONAL: 0.00264
BRANCH_DIRECT_CALL: 0
BRANCH_INDIRECT_CALL: 0
BRANCH_RETURN: 0

cpu0->cpu0_STLB TOTAL        ACCESS:      92516 HIT:      81872 MISS:      10644 MSHR_MERGE:          0
cpu0->cpu0_STLB LOAD         ACCESS:      92516 HIT:      81872 MISS:      10644 MSHR_MERGE:          0
cpu0->cpu0_STLB RFO          ACCESS:          0 HIT:          0 MISS:          0 MSHR_MERGE:          0
cpu0->cpu0_STLB PREFETCH     ACCESS:          0 HIT:          0 MISS:          0 MSHR_MERGE:          0
cpu0->cpu0_STLB WRITE        ACCESS:          0 HIT:          0 MISS:          0 MSHR_MERGE:          0
cpu0->cpu0_STLB TRANSLATION  ACCESS:          0 HIT:          0 MISS:          0 MSHR_MERGE:          0
cpu0->cpu0_STLB PREFETCH REQUESTED:          0 ISSUED:          0 USEFUL:          0 USELESS:          0
cpu0->cpu0_STLB AVERAGE MISS LATENCY: 698.6 cycles
cpu0->cpu0_L2C TOTAL        ACCESS:    1175515 HIT:     429758 MISS:     745757 MSHR_MERGE:          0
cpu0->cpu0_L2C LOAD         ACCESS:     518837 HIT:      83088 MISS:     435749 MSHR_MERGE:          0
cpu0->cpu0_L2C RFO          ACCESS:     315825 HIT:      18129 MISS:     297696 MSHR_MERGE:          0
cpu0->cpu0_L2C PREFETCH     ACCESS:          0 HIT:          0 MISS:          0 MSHR_MERGE:          0
cpu0->cpu0_L2C WRITE        ACCESS:     319612 HIT:     319569 MISS:         43 MSHR_MERGE:          0
cpu0->cpu0_L2C TRANSLATION  ACCESS:      21241 HIT:       8972 MISS:      12269 MSHR_MERGE:          0
cpu0->cpu0_L2C PREFETCH REQUESTED:          0 ISSUED:          0 USEFUL:          0 USELESS:          0
cpu0->cpu0_L2C AVERAGE MISS LATENCY: 224.3 cycles
cpu0->cpu0_L1I TOTAL        ACCESS:    9765277 HIT:    9765269 MISS:          8 MSHR_MERGE:          1
cpu0->cpu0_L1I LOAD         ACCESS:    9765277 HIT:    9765269 MISS:          8 MSHR_MERGE:          1
cpu0->cpu0_L1I RFO          ACCESS:          0 HIT:          0 MISS:          0 MSHR_MERGE:          0
cpu0->cpu0_L1I PREFETCH     ACCESS:          0 HIT:          0 MISS:          0 MSHR_MERGE:          0
cpu0->cpu0_L1I WRITE        ACCESS:          0 HIT:          0 MISS:          0 MSHR_MERGE:          0
cpu0->cpu0_L1I TRANSLATION  ACCESS:          0 HIT:          0 MISS:          0 MSHR_MERGE:          0
cpu0->cpu0_L1I PREFETCH REQUESTED:          0 ISSUED:          0 USEFUL:          0 USELESS:          0
cpu0->cpu0_L1I AVERAGE MISS LATENCY: 236.3 cycles
cpu0->cpu0_L1D TOTAL        ACCESS:   16450251 HIT:   14811991 MISS:    1638260 MSHR_MERGE:     782084
cpu0->cpu0_L1D LOAD         ACCESS:    7284486 HIT:    6763692 MISS:     520794 MSHR_MERGE:       1961
cpu0->cpu0_L1D RFO          ACCESS:          0 HIT:          0 MISS:          0 MSHR_MERGE:          0
cpu0->cpu0_L1D PREFETCH     ACCESS:          0 HIT:          0 MISS:          0 MSHR_MERGE:          0
cpu0->cpu0_L1D WRITE        ACCESS:    9144450 HIT:    8048228 MISS:    1096222 MSHR_MERGE:     780120
cpu0->cpu0_L1D TRANSLATION  ACCESS:      21315 HIT:         71 MISS:      21244 MSHR_MERGE:          3
cpu0->cpu0_L1D PREFETCH REQUESTED:          0 ISSUED:          0 USEFUL:          0 USELESS:          0
cpu0->cpu0_L1D AVERAGE MISS LATENCY: 204.3 cycles
cpu0->cpu0_ITLB TOTAL        ACCESS:    7732858 HIT:    7732858 MISS:          0 MSHR_MERGE:          0
cpu0->cpu0_ITLB LOAD         ACCESS:    7732858 HIT:    7732858 MISS:          0 MSHR_MERGE:          0
cpu0->cpu0_ITLB RFO          ACCESS:          0 HIT:          0 MISS:          0 MSHR_MERGE:          0
cpu0->cpu0_ITLB PREFETCH     ACCESS:          0 HIT:          0 MISS:          0 MSHR_MERGE:          0
cpu0->cpu0_ITLB WRITE        ACCESS:          0 HIT:          0 MISS:          0 MSHR_MERGE:          0
cpu0->cpu0_ITLB TRANSLATION  ACCESS:          0 HIT:          0 MISS:          0 MSHR_MERGE:          0
cpu0->cpu0_ITLB PREFETCH REQUESTED:          0 ISSUED:          0 USEFUL:          0 USELESS:          0
cpu0->cpu0_ITLB AVERAGE MISS LATENCY: - cycles
cpu0->cpu0_DTLB TOTAL        ACCESS:   15157996 HIT:   15054991 MISS:     103005 MSHR_MERGE:      10489
cpu0->cpu0_DTLB LOAD         ACCESS:   15157996 HIT:   15054991 MISS:     103005 MSHR_MERGE:      10489
cpu0->cpu0_DTLB RFO          ACCESS:          0 HIT:          0 MISS:          0 MSHR_MERGE:          0
cpu0->cpu0_DTLB PREFETCH     ACCESS:          0 HIT:          0 MISS:          0 MSHR_MERGE:          0
cpu0->cpu0_DTLB WRITE        ACCESS:          0 HIT:          0 MISS:          0 MSHR_MERGE:          0
cpu0->cpu0_DTLB TRANSLATION  ACCESS:          0 HIT:          0 MISS:          0 MSHR_MERGE:          0
cpu0->cpu0_DTLB PREFETCH REQUESTED:          0 ISSUED:          0 USEFUL:          0 USELESS:          0
cpu0->cpu0_DTLB AVERAGE MISS LATENCY: 85.5 cycles
cpu0->LLC TOTAL        ACCESS:    1043424 HIT:     349558 MISS:     693866 MSHR_MERGE:          0
cpu0->LLC LOAD         ACCESS:     435749 HIT:      51875 MISS:     383874 MSHR_MERGE:          0
cpu0->LLC RFO          ACCESS:     297696 HIT:          0 MISS:     297696 MSHR_MERGE:          0
cpu0->LLC PREFETCH     ACCESS:          0 HIT:          0 MISS:          0 MSHR_MERGE:          0
cpu0->LLC WRITE        ACCESS:     297710 HIT:     297683 MISS:         27 MSHR_MERGE:          0
cpu0->LLC TRANSLATION  ACCESS:      12269 HIT:          0 MISS:      12269 MSHR_MERGE:          0
cpu0->LLC PREFETCH REQUESTED:          0 ISSUED:          0 USEFUL:          0 USELESS:          0
cpu0->LLC AVERAGE MISS LATENCY: 224 cycles

DRAM Statistics

Channel 0 RQ ROW_BUFFER_HIT:         26
  ROW_BUFFER_MISS:     693809
  AVG DBUS CONGESTED CYCLE: 11.12
Channel 0 WQ ROW_BUFFER_HIT:     105585
  ROW_BUFFER_MISS:     192382
  FULL:          0
Channel 0 REFRESHES ISSUED:       4672
