[VMEM] WARNING: physical memory size is smaller than virtual memory size.

*** ChampSim Multicore Out-of-Order Simulator ***
Warmup Instructions: 10000000
Simulation Instructions: 50000000
Number of CPUs: 1
Page size: 4096

Off-chip DRAM Size: 16 GiB Channels: 1 Width: 64-bit Data Rate: 3205 MT/s
Heartbeat CPU 0 instructions: 10000001 cycles: 4024569 heartbeat IPC: 2.485 cumulative IPC: 2.485 (Simulation time: 00 hr 00 min 30 sec)
Warmup finished CPU 0 instructions: 10000001 cycles: 4024569 cumulative IPC: 2.485 (Simulation time: 00 hr 00 min 30 sec)
Warmup complete CPU 0 instructions: 10000001 cycles: 4024569 cumulative IPC: 2.485 (Simulation time: 00 hr 00 min 30 sec)
Heartbeat CPU 0 instructions: 20000001 cycles: 45570235 heartbeat IPC: 0.2407 cumulative IPC: 0.2407 (Simulation time: 00 hr 04 min 03 sec)
Heartbeat CPU 0 instructions: 30000002 cycles: 86823455 heartbeat IPC: 0.2424 cumulative IPC: 0.2415 (Simulation time: 00 hr 07 min 36 sec)
Heartbeat CPU 0 instructions: 40000003 cycles: 129202595 heartbeat IPC: 0.236 cumulative IPC: 0.2397 (Simulation time: 00 hr 11 min 14 sec)
Heartbeat CPU 0 instructions: 50000006 cycles: 170579674 heartbeat IPC: 0.2417 cumulative IPC: 0.2402 (Simulation time: 00 hr 14 min 47 sec)
Simulation finished CPU 0 instructions: 50000002 cycles: 208038303 cumulative IPC: 0.2403 (Simulation time: 00 hr 18 min 22 sec)
Simulation complete CPU 0 instructions: 50000002 cycles: 208038303 cumulative IPC: 0.2403 (Simulation time: 00 hr 18 min 22 sec)

ChampSim completed all CPUs

=== Simulation ===
CPU 0 runs traces/605.mcf_s-1536B.champsimtrace.xz

Region of Interest Statistics

CPU 0 cumulative IPC: 0.2403 instructions: 50000002 cycles: 208038303
CPU 0 Branch Prediction Accuracy: 99.98% MPKI: 0.02988 Average ROB Occupancy at Mispredict: 245.5
Branch type MPKI
BRANCH_DIRECT_JUMP: 0
BRANCH_INDIRECT: 0
BRANCH_CONDITIONAL: 0.02988
BRANCH_DIRECT_CALL: 0
BRANCH_INDIRECT_CALL: 0
BRANCH_RETURN: 0

cpu0->cpu0_STLB TOTAL        ACCESS:    1310395 HIT:     188957 MISS:    1121438 MSHR_MERGE:          0
cpu0->cpu0_STLB LOAD         ACCESS:    1310395 HIT:     188957 MISS:    1121438 MSHR_MERGE:          0
cpu0->cpu0_STLB RFO          ACCESS:          0 HIT:          0 MISS:          0 MSHR_MERGE:          0
cpu0->cpu0_STLB PREFETCH     ACCESS:          0 HIT:          0 MISS:          0 MSHR_MERGE:          0
cpu0->cpu0_STLB WRITE        ACCESS:          0 HIT:          0 MISS:          0 MSHR_MERGE:          0
cpu0->cpu0_STLB TRANSLATION  ACCESS:          0 HIT:          0 MISS:          0 MSHR_MERGE:          0
cpu0->cpu0_STLB PREFETCH REQUESTED:          0 ISSUED:          0 USEFUL:          0 USELESS:          0
cpu0->cpu0_STLB AVERAGE MISS LATENCY: 84.54 cycles
cpu0->cpu0_L2C TOTAL        ACCESS:    5934761 HIT:    2495267 MISS:    3439494 MSHR_MERGE:          0
cpu0->cpu0_L2C LOAD         ACCESS:    2443056 HIT:     907022 MISS:    1536034 MSHR_MERGE:          0
cpu0->cpu0_L2C RFO          ACCESS:     143258 HIT:      36138 MISS:     107120 MSHR_MERGE:          0
cpu0->cpu0_L2C PREFETCH     ACCESS:          0 HIT:          0 MISS:          0 MSHR_MERGE:          0
cpu0->cpu0_L2C WRITE        ACCESS:    1113267 HIT:    1113267 MISS:          0 MSHR_MERGE:          0
cpu0->cpu0_L2C TRANSLATION  ACCESS:    2235180 HIT:     438840 MISS:    1796340 MSHR_MERGE:          0
cpu0->cpu0_L2C PREFETCH REQUESTED:          0 ISSUED:          0 USEFUL:          0 USELESS:          0
cpu0->cpu0_L2C AVERAGE MISS LATENCY: 106.3 cycles
cpu0->cpu0_L1I TOTAL        ACCESS:   11116175 HIT:   11116175 MISS:          0 MSHR_MERGE:          0
cpu0->cpu0_L1I LOAD         ACCESS:   11116175 HIT:   11116175 MISS:          0 MSHR_MERGE:          0
cpu0->cpu0_L1I RFO          ACCESS:          0 HIT:          0 MISS:          0 MSHR_MERGE:          0
cpu0->cpu0_L1I PREFETCH     ACCESS:          0 HIT:          0 MISS:          0 MSHR_MERGE:          0
cpu0->cpu0_L1I WRITE        ACCESS:          0 HIT:          0 MISS:          0 MSHR_MERGE:          0
cpu0->cpu0_L1I TRANSLATION  ACCESS:          0 HIT:          0 MISS:          0 MSHR_MERGE:          0
cpu0->cpu0_L1I PREFETCH REQUESTED:          0 ISSUED:          0 USEFUL:          0 USELESS:          0
cpu0->cpu0_L1I AVERAGE MISS LATENCY: - cycles
cpu0->cpu0_L1D TOTAL        ACCESS:   14595285 HIT:    8097542 MISS:    6497743 MSHR_MERGE:    1676225
cpu0->cpu0_L1D LOAD         ACCESS:    9964914 HIT:    5867373 MISS:    4097541 MSHR_MERGE:    1654485
cpu0->cpu0_L1D RFO          ACCESS:          0 HIT:          0 MISS:          0 MSHR_MERGE:          0
cpu0->cpu0_L1D PREFETCH     ACCESS:          0 HIT:          0 MISS:          0 MSHR_MERGE:          0
cpu0->cpu0_L1D WRITE        ACCESS:    2217254 HIT:    2073907 MISS:     143347 MSHR_MERGE:         65
cpu0->cpu0_L1D TRANSLATION  ACCESS:    2413117 HIT:     156262 MISS:    2256855 MSHR_MERGE:      21675
cpu0->cpu0_L1D PREFETCH REQUESTED:          0 ISSUED:          0 USEFUL:          0 USELESS:          0
cpu0->cpu0_L1D AVERAGE MISS LATENCY: 84.68 cycles
cpu0->cpu0_ITLB TOTAL        ACCESS:    9960526 HIT:    9960526 MISS:          0 MSHR_MERGE:          0
cpu0->cpu0_ITLB LOAD         ACCESS:    9960526 HIT:    9960526 MISS:          0 MSHR_MERGE:          0
cpu0->cpu0_ITLB RFO          ACCESS:          0 HIT:          0 MISS:          0 MSHR_MERGE:          0
cpu0->cpu0_ITLB PREFETCH     ACCESS:          0 HIT:          0 MISS:          0 MSHR_MERGE:          0
cpu0->cpu0_ITLB WRITE        ACCESS:          0 HIT:          0 MISS:          0 MSHR_MERGE:          0
cpu0->cpu0_ITLB TRANSLATION  ACCESS:          0 HIT:          0 MISS:          0 MSHR_MERGE:          0
cpu0->cpu0_ITLB PREFETCH REQUESTED:          0 ISSUED:          0 USEFUL:          0 USELESS:          0
cpu0->cpu0_ITLB AVERAGE MISS LATENCY: - cycles
cpu0->cpu0_DTLB TOTAL        ACCESS:   12088002 HIT:    8794617 MISS:    3293385 MSHR_MERGE:    1982990
cpu0->cpu0_DTLB LOAD         ACCESS:   12088002 HIT:    8794617 MISS:    3293385 MSHR_MERGE:    1982990
cpu0->cpu0_DTLB RFO          ACCESS:          0 HIT:          0 MISS:          0 MSHR_MERGE:          0
cpu0->cpu0_DTLB PREFETCH     ACCESS:          0 HIT:          0 MISS:          0 MSHR_MERGE:          0
cpu0->cpu0_DTLB WRITE        ACCESS:          0 HIT:          0 MISS:          0 MSHR_MERGE:          0
cpu0->cpu0_DTLB TRANSLATION  ACCESS:          0 HIT:          0 MISS:          0 MSHR_MERGE:          0
cpu0->cpu0_DTLB PREFETCH REQUESTED:          0 ISSUED:          0 USEFUL:          0 USELESS:          0
cpu0->cpu0_DTLB AVERAGE MISS LATENCY: 78.2 cycles
cpu0->LLC TOTAL        ACCESS:    4548412 HIT:    3176848 MISS:    1371564 MSHR_MERGE:          0
cpu0->LLC LOAD         ACCESS:    1536034 HIT:     260323 MISS:    1275711 MSHR_MERGE:          0
cpu0->LLC RFO          ACCESS:     107120 HIT:     107099 MISS:         21 MSHR_MERGE:          0
cpu0->LLC PREFETCH     ACCESS:          0 HIT:          0 MISS:          0 MSHR_MERGE:          0
cpu0->LLC WRITE        ACCESS:    1108918 HIT:    1108918 MISS:          0 MSHR_MERGE:          0
cpu0->LLC TRANSLATION  ACCESS:    1796340 HIT:    1700508 MISS:      95832 MSHR_MERGE:          0
cpu0->LLC PREFETCH REQUESTED:          0 ISSUED:          0 USEFUL:          0 USELESS:          0
cpu0->LLC AVERAGE MISS LATENCY: 228 cycles

DRAM Statistics

Channel 0 RQ ROW_BUFFER_HIT:        399
  ROW_BUFFER_MISS:    1371165
  AVG DBUS CONGESTED CYCLE: 5.811
Channel 0 WQ ROW_BUFFER_HIT:     362019
  ROW_BUFFER_MISS:     746056
  FULL:          0
Channel 0 REFRESHES ISSUED:      17336
