[VMEM] WARNING: physical memory size is smaller than virtual memory size.

*** ChampSim Multicore Out-of-Order Simulator ***
Warmup Instructions: 10000000
Simulation Instructions: 50000000
Number of CPUs: 1
Page size: 4096

Off-chip DRAM Size: 16 GiB Channels: 1 Width: 64-bit Data Rate: 3205 MT/s
Heartbeat CPU 0 instructions: 10000003 cycles: 3488191 heartbeat IPC: 2.867 cumulative IPC: 2.867 (Simulation time: 00 hr 00 min 25 sec)
Warmup finished CPU 0 instructions: 10000003 cycles: 3488191 cumulative IPC: 2.867 (Simulation time: 00 hr 00 min 25 sec)
Warmup complete CPU 0 instructions: 10000003 cycles: 3488191 cumulative IPC: 2.867 (Simulation time: 00 hr 00 min 25 sec)
Heartbeat CPU 0 instructions: 20000005 cycles: 40115921 heartbeat IPC: 0.273 cumulative IPC: 0.273 (Simulation time: 00 hr 02 min 31 sec)
Heartbeat CPU 0 instructions: 30000008 cycles: 76693932 heartbeat IPC: 0.2734 cumulative IPC: 0.2732 (Simulation time: 00 hr 04 min 38 sec)
Heartbeat CPU 0 instructions: 40000008 cycles: 113294989 heartbeat IPC: 0.2732 cumulative IPC: 0.2732 (Simulation time: 00 hr 06 min 45 sec)
Heartbeat CPU 0 instructions: 50000009 cycles: 149836400 heartbeat IPC: 0.2737 cumulative IPC: 0.2733 (Simulation time: 00 hr 08 min 51 sec)
Simulation finished CPU 0 instructions: 50000000 cycles: 182870575 cumulative IPC: 0.2734 (Simulation time: 00 hr 10 min 59 sec)
Simulation complete CPU 0 instructions: 50000000 cycles: 182870575 cumulative IPC: 0.2734 (Simulation time: 00 hr 10 min 59 sec)

ChampSim completed all CPUs

=== Simulation ===
CPU 0 runs traces/602.gcc_s-1850B.champsimtrace.xz

Region of Interest Statistics

CPU 0 cumulative IPC: 0.2734 instructions: 50000000 cycles: 182870575
CPU 0 Branch Prediction Accuracy: 96.16% MPKI: 9.857 Average ROB Occupancy at Mispredict: 50.44
Branch type MPKI
BRANCH_DIRECT_JUMP: 0.01114
BRANCH_INDIRECT: 0
BRANCH_CONDITIONAL: 9.846
BRANCH_DIRECT_CALL: 0
BRANCH_INDIRECT_CALL: 0
BRANCH_RETURN: 0

cpu0->cpu0_STLB TOTAL        ACCESS:      16360 HIT:       1142 MISS:      15218 MSHR_MERGE:          0
cpu0->cpu0_STLB LOAD         ACCESS:      16360 HIT:       1142 MISS:      15218 MSHR_MERGE:          0
cpu0->cpu0_STLB RFO          ACCESS:          0 HIT:          0 MISS:          0 MSHR_MERGE:          0
cpu0->cpu0_STLB PREFETCH     ACCESS:          0 HIT:          0 MISS:          0 MSHR_MERGE:          0
cpu0->cpu0_STLB WRITE        ACCESS:          0 HIT:          0 MISS:          0 MSHR_MERGE:          0
cpu0->cpu0_STLB TRANSLATION  ACCESS:          0 HIT:          0 MISS:          0 MSHR_MERGE:          0
cpu0->cpu0_STLB PREFETCH REQUESTED:          0 ISSUED:          0 USEFUL:          0 USELESS:          0
cpu0->cpu0_STLB AVERAGE MISS LATENCY: 688.5 cycles
cpu0->cpu0_L2C TOTAL        ACCESS:    1228904 HIT:     320625 MISS:     908279 MSHR_MERGE:          0
cpu0->cpu0_L2C LOAD         ACCESS:    1206586 HIT:     316900 MISS:     889686 MSHR_MERGE:          0
cpu0->cpu0_L2C RFO          ACCESS:        396 HIT:          0 MISS:        396 MSHR_MERGE:          0
cpu0->cpu0_L2C PREFETCH     ACCESS:          0 HIT:          0 MISS:          0 MSHR_MERGE:          0
cpu0->cpu0_L2C WRITE        ACCESS:       3139 HIT:       3139 MISS:          0 MSHR_MERGE:          0
cpu0->cpu0_L2C TRANSLATION  ACCESS:      18783 HIT:        586 MISS:      18197 MSHR_MERGE:          0
cpu0->cpu0_L2C PREFETCH REQUESTED:          0 ISSUED:          0 USEFUL:          0 USELESS:          0
cpu0->cpu0_L2C AVERAGE MISS LATENCY: 154.3 cycles
cpu0->cpu0_L1I TOTAL        ACCESS:    1624481 HIT:    1624481 MISS:          0 MSHR_MERGE:          0
cpu0->cpu0_L1I LOAD         ACCESS:    1624481 HIT:    1624481 MISS:          0 MSHR_MERGE:          0
cpu0->cpu0_L1I RFO          ACCESS:          0 HIT:          0 MISS:          0 MSHR_MERGE:          0
cpu0->cpu0_L1I PREFETCH     ACCESS:          0 HIT:          0 MISS:          0 MSHR_MERGE:          0
cpu0->cpu0_L1I WRITE        ACCESS:          0 HIT:          0 MISS:          0 MSHR_MERGE:          0
cpu0->cpu0_L1I TRANSLATION  ACCESS:          0 HIT:          0 MISS:          0 MSHR_MERGE:          0
cpu0->cpu0_L1I PREFETCH REQUESTED:          0 ISSUED:          0 USEFUL:          0 USELESS:          0
cpu0->cpu0_L1I AVERAGE MISS LATENCY: - cycles
cpu0->cpu0_L1D TOTAL        ACCESS:   13447079 HIT:   11176783 MISS:    2270296 MSHR_MERGE:    1044531
cpu0->cpu0_L1D LOAD         ACCESS:    9100911 HIT:    6849794 MISS:    2251117 MSHR_MERGE:    1044531
cpu0->cpu0_L1D RFO          ACCESS:          0 HIT:          0 MISS:          0 MSHR_MERGE:          0
cpu0->cpu0_L1D PREFETCH     ACCESS:          0 HIT:          0 MISS:          0 MSHR_MERGE:          0
cpu0->cpu0_L1D WRITE        ACCESS:    4315581 HIT:    4315185 MISS:        396 MSHR_MERGE:          0
cpu0->cpu0_L1D TRANSLATION  ACCESS:      30587 HIT:      11804 MISS:      18783 MSHR_MERGE:          0
cpu0->cpu0_L1D PREFETCH REQUESTED:          0 ISSUED:          0 USEFUL:          0 USELESS:          0
cpu0->cpu0_L1D AVERAGE MISS LATENCY: 123 cycles
cpu0->cpu0_ITLB TOTAL        ACCESS:    1360130 HIT:    1360130 MISS:          0 MSHR_MERGE:          0
cpu0->cpu0_ITLB LOAD         ACCESS:    1360130 HIT:    1360130 MISS:          0 MSHR_MERGE:          0
cpu0->cpu0_ITLB RFO          ACCESS:          0 HIT:          0 MISS:          0 MSHR_MERGE:          0
cpu0->cpu0_ITLB PREFETCH     ACCESS:          0 HIT:          0 MISS:          0 MSHR_MERGE:          0
cpu0->cpu0_ITLB WRITE        ACCESS:          0 HIT:          0 MISS:          0 MSHR_MERGE:          0
cpu0->cpu0_ITLB TRANSLATION  ACCESS:          0 HIT:          0 MISS:          0 MSHR_MERGE:          0
cpu0->cpu0_ITLB PREFETCH REQUESTED:          0 ISSUED:          0 USEFUL:          0 USELESS:          0
cpu0->cpu0_ITLB AVERAGE MISS LATENCY: - cycles
cpu0->cpu0_DTLB TOTAL        ACCESS:   12409422 HIT:   12376999 MISS:      32423 MSHR_MERGE:      16063
cpu0->cpu0_DTLB LOAD         ACCESS:   12409422 HIT:   12376999 MISS:      32423 MSHR_MERGE:      16063
cpu0->cpu0_DTLB RFO          ACCESS:          0 HIT:          0 MISS:          0 MSHR_MERGE:          0
cpu0->cpu0_DTLB PREFETCH     ACCESS:          0 HIT:          0 MISS:          0 MSHR_MERGE:          0
cpu0->cpu0_DTLB WRITE        ACCESS:          0 HIT:          0 MISS:          0 MSHR_MERGE:          0
cpu0->cpu0_DTLB TRANSLATION  ACCESS:          0 HIT:          0 MISS:          0 MSHR_MERGE:          0
cpu0->cpu0_DTLB PREFETCH REQUESTED:          0 ISSUED:          0 USEFUL:          0 USELESS:          0
cpu0->cpu0_DTLB AVERAGE MISS LATENCY: 646.4 cycles
cpu0->LLC TOTAL        ACCESS:     909541 HIT:       2571 MISS:     906970 MSHR_MERGE:          0
cpu0->LLC LOAD         ACCESS:     889686 HIT:       1219 MISS:     888467 MSHR_MERGE:          0
cpu0->LLC RFO          ACCESS:        396 HIT:          0 MISS:        396 MSHR_MERGE:          0
cpu0->LLC PREFETCH     ACCESS:          0 HIT:          0 MISS:          0 MSHR_MERGE:          0
cpu0->LLC WRITE        ACCESS:       1262 HIT:       1261 MISS:          1 MSHR_MERGE:          0
cpu0->LLC TRANSLATION  ACCESS:      18197 HIT:         91 MISS:      18106 MSHR_MERGE:          0
cpu0->LLC PREFETCH REQUESTED:          0 ISSUED:          0 USEFUL:          0 USELESS:          0
cpu0->LLC AVERAGE MISS LATENCY: 138.5 cycles

DRAM Statistics

Channel 0 RQ ROW_BUFFER_HIT:     284283
  ROW_BUFFER_MISS:     622686
  AVG DBUS CONGESTED CYCLE: 24.55
Channel 0 WQ ROW_BUFFER_HIT:        403
  ROW_BUFFER_MISS:        838
  FULL:          0
Channel 0 REFRESHES ISSUED:      15239
