[VMEM] WARNING: physical memory size is smaller than virtual memory size.

*** ChampSim Multicore Out-of-Order Simulator ***
Warmup Instructions: 10000000
Simulation Instructions: 50000000
Number of CPUs: 1
Page size: 4096

Off-chip DRAM Size: 16 GiB Channels: 1 Width: 64-bit Data Rate: 3205 MT/s
Heartbeat CPU 0 instructions: 10000000 cycles: 2857142 heartbeat IPC: 3.5 cumulative IPC: 3.5 (Simulation time: 00 hr 00 min 24 sec)
Warmup finished CPU 0 instructions: 10000000 cycles: 2857142 cumulative IPC: 3.5 (Simulation time: 00 hr 00 min 24 sec)
Warmup complete CPU 0 instructions: 10000000 cycles: 2857142 cumulative IPC: 3.5 (Simulation time: 00 hr 00 min 24 sec)
Heartbeat CPU 0 instructions: 20000004 cycles: 7502620 heartbeat IPC: 2.153 cumulative IPC: 2.153 (Simulation time: 00 hr 00 min 53 sec)
Heartbeat CPU 0 instructions: 30000006 cycles: 11578473 heartbeat IPC: 2.453 cumulative IPC: 2.293 (Simulation time: 00 hr 01 min 19 sec)
Heartbeat CPU 0 instructions: 40000010 cycles: 16103243 heartbeat IPC: 2.21 cumulative IPC: 2.265 (Simulation time: 00 hr 01 min 46 sec)
Heartbeat CPU 0 instructions: 50000013 cycles: 20504749 heartbeat IPC: 2.272 cumulative IPC: 2.267 (Simulation time: 00 hr 02 min 13 sec)
Simulation finished CPU 0 instructions: 50000001 cycles: 21545152 cumulative IPC: 2.321 (Simulation time: 00 hr 02 min 41 sec)
Simulation complete CPU 0 instructions: 50000001 cycles: 21545152 cumulative IPC: 2.321 (Simulation time: 00 hr 02 min 41 sec)

ChampSim completed all CPUs

=== Simulation ===
CPU 0 runs traces/600.perlbench_s-1273B.champsimtrace.xz

Region of Interest Statistics

CPU 0 cumulative IPC: 2.321 instructions: 50000001 cycles: 21545152
CPU 0 Branch Prediction Accuracy: 98.42% MPKI: 2.141 Average ROB Occupancy at Mispredict: 135.5
Branch type MPKI
BRANCH_DIRECT_JUMP: 0.01212
BRANCH_INDIRECT: 0.379
BRANCH_CONDITIONAL: 1.748
BRANCH_DIRECT_CALL: 0.00112
BRANCH_INDIRECT_CALL: 0.00022
BRANCH_RETURN: 0.00112

cpu0->cpu0_STLB TOTAL        ACCESS:      13652 HIT:      13356 MISS:        296 MSHR_MERGE:          0
cpu0->cpu0_STLB LOAD         ACCESS:      13652 HIT:      13356 MISS:        296 MSHR_MERGE:          0
cpu0->cpu0_STLB RFO          ACCESS:          0 HIT:          0 MISS:          0 MSHR_MERGE:          0
cpu0->cpu0_STLB PREFETCH     ACCESS:          0 HIT:          0 MISS:          0 MSHR_MERGE:          0
cpu0->cpu0_STLB WRITE        ACCESS:          0 HIT:          0 MISS:          0 MSHR_MERGE:          0
cpu0->cpu0_STLB TRANSLATION  ACCESS:          0 HIT:          0 MISS:          0 MSHR_MERGE:          0
cpu0->cpu0_STLB PREFETCH REQUESTED:          0 ISSUED:          0 USEFUL:          0 USELESS:          0
cpu0->cpu0_STLB AVERAGE MISS LATENCY: 793.3 cycles
cpu0->cpu0_L2C TOTAL        ACCESS:       4482 HIT:       1446 MISS:       3036 MSHR_MERGE:          0
cpu0->cpu0_L2C LOAD         ACCESS:       3568 HIT:       1145 MISS:       2423 MSHR_MERGE:          0
cpu0->cpu0_L2C RFO          ACCESS:         96 HIT:         26 MISS:         70 MSHR_MERGE:          0
cpu0->cpu0_L2C PREFETCH     ACCESS:          0 HIT:          0 MISS:          0 MSHR_MERGE:          0
cpu0->cpu0_L2C WRITE        ACCESS:        263 HIT:        263 MISS:          0 MSHR_MERGE:          0
cpu0->cpu0_L2C TRANSLATION  ACCESS:        555 HIT:         12 MISS:        543 MSHR_MERGE:          0
cpu0->cpu0_L2C PREFETCH REQUESTED:          0 ISSUED:          0 USEFUL:          0 USELESS:          0
cpu0->cpu0_L2C AVERAGE MISS LATENCY: 186.9 cycles
cpu0->cpu0_L1I TOTAL        ACCESS:    4264986 HIT:    4263460 MISS:       1526 MSHR_MERGE:        256
cpu0->cpu0_L1I LOAD         ACCESS:    4264986 HIT:    4263460 MISS:       1526 MSHR_MERGE:        256
cpu0->cpu0_L1I RFO          ACCESS:          0 HIT:          0 MISS:          0 MSHR_MERGE:          0
cpu0->cpu0_L1I PREFETCH     ACCESS:          0 HIT:          0 MISS:          0 MSHR_MERGE:          0
cpu0->cpu0_L1I WRITE        ACCESS:          0 HIT:          0 MISS:          0 MSHR_MERGE:          0
cpu0->cpu0_L1I TRANSLATION  ACCESS:          0 HIT:          0 MISS:          0 MSHR_MERGE:          0
cpu0->cpu0_L1I PREFETCH REQUESTED:          0 ISSUED:          0 USEFUL:          0 USELESS:          0
cpu0->cpu0_L1I AVERAGE MISS LATENCY: 35.06 cycles
cpu0->cpu0_L1D TOTAL        ACCESS:   16170493 HIT:   16166578 MISS:       3915 MSHR_MERGE:        966
cpu0->cpu0_L1D LOAD         ACCESS:    6216572 HIT:    6213534 MISS:       3038 MSHR_MERGE:        740
cpu0->cpu0_L1D RFO          ACCESS:          0 HIT:          0 MISS:          0 MSHR_MERGE:          0
cpu0->cpu0_L1D PREFETCH     ACCESS:          0 HIT:          0 MISS:          0 MSHR_MERGE:          0
cpu0->cpu0_L1D WRITE        ACCESS:    9953304 HIT:    9952985 MISS:        319 MSHR_MERGE:        223
cpu0->cpu0_L1D TRANSLATION  ACCESS:        617 HIT:         59 MISS:        558 MSHR_MERGE:          3
cpu0->cpu0_L1D PREFETCH REQUESTED:          0 ISSUED:          0 USEFUL:          0 USELESS:          0
cpu0->cpu0_L1D AVERAGE MISS LATENCY: 189.4 cycles
cpu0->cpu0_ITLB TOTAL        ACCESS:    3631569 HIT:    3631261 MISS:        308 MSHR_MERGE:        181
cpu0->cpu0_ITLB LOAD         ACCESS:    3631569 HIT:    3631261 MISS:        308 MSHR_MERGE:        181
cpu0->cpu0_ITLB RFO          ACCESS:          0 HIT:          0 MISS:          0 MSHR_MERGE:          0
cpu0->cpu0_ITLB PREFETCH     ACCESS:          0 HIT:          0 MISS:          0 MSHR_MERGE:          0
cpu0->cpu0_ITLB WRITE        ACCESS:          0 HIT:          0 MISS:          0 MSHR_MERGE:          0
cpu0->cpu0_ITLB TRANSLATION  ACCESS:          0 HIT:          0 MISS:          0 MSHR_MERGE:          0
cpu0->cpu0_ITLB PREFETCH REQUESTED:          0 ISSUED:          0 USEFUL:          0 USELESS:          0
cpu0->cpu0_ITLB AVERAGE MISS LATENCY: 52.67 cycles
cpu0->cpu0_DTLB TOTAL        ACCESS:   14379006 HIT:   14364073 MISS:      14933 MSHR_MERGE:       1408
cpu0->cpu0_DTLB LOAD         ACCESS:   14379006 HIT:   14364073 MISS:      14933 MSHR_MERGE:       1408
cpu0->cpu0_DTLB RFO          ACCESS:          0 HIT:          0 MISS:          0 MSHR_MERGE:          0
cpu0->cpu0_DTLB PREFETCH     ACCESS:          0 HIT:          0 MISS:          0 MSHR_MERGE:          0
cpu0->cpu0_DTLB WRITE        ACCESS:          0 HIT:          0 MISS:          0 MSHR_MERGE:          0
cpu0->cpu0_DTLB TRANSLATION  ACCESS:          0 HIT:          0 MISS:          0 MSHR_MERGE:          0
cpu0->cpu0_DTLB PREFETCH REQUESTED:          0 ISSUED:          0 USEFUL:          0 USELESS:          0
cpu0->cpu0_DTLB AVERAGE MISS LATENCY: 21.94 cycles
cpu0->LLC TOTAL        ACCESS:       3042 HIT:          7 MISS:       3035 MSHR_MERGE:          0
cpu0->LLC LOAD         ACCESS:       2423 HIT:          1 MISS:       2422 MSHR_MERGE:          0
cpu0->LLC RFO          ACCESS:         70 HIT:          0 MISS:         70 MSHR_MERGE:          0
cpu0->LLC PREFETCH     ACCESS:          0 HIT:          0 MISS:          0 MSHR_MERGE:          0
cpu0->LLC WRITE        ACCESS:          6 HIT:          6 MISS:          0 MSHR_MERGE:          0
cpu0->LLC TRANSLATION  ACCESS:        543 HIT:          0 MISS:        543 MSHR_MERGE:          0
cpu0->LLC PREFETCH REQUESTED:          0 ISSUED:          0 USEFUL:          0 USELESS:          0
cpu0->LLC AVERAGE MISS LATENCY: 170.9 cycles

DRAM Statistics

Channel 0 RQ ROW_BUFFER_HIT:         41
  ROW_BUFFER_MISS:       2994
  AVG DBUS CONGESTED CYCLE: 2.795
Channel 0 WQ ROW_BUFFER_HIT:          0
  ROW_BUFFER_MISS:          0
  FULL:          0
Channel 0 REFRESHES ISSUED:       1795
