[VMEM] WARNING: physical memory size is smaller than virtual memory size.

*** ChampSim Multicore Out-of-Order Simulator ***
Warmup Instructions: 10000000
Simulation Instructions: 50000000
Number of CPUs: 1
Page size: 4096

Off-chip DRAM Size: 16 GiB Channels: 1 Width: 64-bit Data Rate: 3205 MT/s
Heartbeat CPU 0 instructions: 10000002 cycles: 2515362 heartbeat IPC: 3.976 cumulative IPC: 3.976 (Simulation time: 00 hr 00 min 18 sec)
Warmup finished CPU 0 instructions: 10000002 cycles: 2515362 cumulative IPC: 3.976 (Simulation time: 00 hr 00 min 18 sec)
Warmup complete CPU 0 instructions: 10000002 cycles: 2515362 cumulative IPC: 3.976 (Simulation time: 00 hr 00 min 18 sec)
Heartbeat CPU 0 instructions: 20000002 cycles: 10566592 heartbeat IPC: 1.242 cumulative IPC: 1.242 (Simulation time: 00 hr 00 min 53 sec)
Heartbeat CPU 0 instructions: 30000002 cycles: 18689757 heartbeat IPC: 1.231 cumulative IPC: 1.237 (Simulation time: 00 hr 01 min 28 sec)
Heartbeat CPU 0 instructions: 40000003 cycles: 26776863 heartbeat IPC: 1.237 cumulative IPC: 1.237 (Simulation time: 00 hr 02 min 02 sec)
Heartbeat CPU 0 instructions: 50000007 cycles: 34846641 heartbeat IPC: 1.239 cumulative IPC: 1.237 (Simulation time: 00 hr 02 min 37 sec)
Simulation finished CPU 0 instructions: 50000001 cycles: 40410384 cumulative IPC: 1.237 (Simulation time: 00 hr 03 min 12 sec)
Simulation complete CPU 0 instructions: 50000001 cycles: 40410384 cumulative IPC: 1.237 (Simulation time: 00 hr 03 min 12 sec)

ChampSim completed all CPUs

=== Simulation ===
CPU 0 runs traces/621.wrf_s-575B.champsimtrace.xz

Region of Interest Statistics

CPU 0 cumulative IPC: 1.237 instructions: 50000001 cycles: 40410384
CPU 0 Branch Prediction Accuracy: 95.03% MPKI: 6.618 Average ROB Occupancy at Mispredict: 94.06
Branch type MPKI
BRANCH_DIRECT_JUMP: 0
BRANCH_INDIRECT: 0
BRANCH_CONDITIONAL: 6.603
BRANCH_DIRECT_CALL: 0
BRANCH_INDIRECT_CALL: 0
BRANCH_RETURN: 0.01462

cpu0->cpu0_STLB TOTAL        ACCESS:       1959 HIT:       1911 MISS:         48 MSHR_MERGE:          0
cpu0->cpu0_STLB LOAD         ACCESS:       1959 HIT:       1911 MISS:         48 MSHR_MERGE:          0
cpu0->cpu0_STLB RFO          ACCESS:          0 HIT:          0 MISS:          0 MSHR_MERGE:          0
cpu0->cpu0_STLB PREFETCH     ACCESS:          0 HIT:          0 MISS:          0 MSHR_MERGE:          0
cpu0->cpu0_STLB WRITE        ACCESS:          0 HIT:          0 MISS:          0 MSHR_MERGE:          0
cpu0->cpu0_STLB TRANSLATION  ACCESS:          0 HIT:          0 MISS:          0 MSHR_MERGE:          0
cpu0->cpu0_STLB PREFETCH REQUESTED:          0 ISSUED:          0 USEFUL:          0 USELESS:          0
cpu0->cpu0_STLB AVERAGE MISS LATENCY: 724.7 cycles
cpu0->cpu0_L2C TOTAL        ACCESS:       2427 HIT:       1149 MISS:       1278 MSHR_MERGE:          0
cpu0->cpu0_L2C LOAD         ACCESS:        814 HIT:        357 MISS:        457 MSHR_MERGE:          0
cpu0->cpu0_L2C RFO          ACCESS:        772 HIT:         26 MISS:        746 MSHR_MERGE:          0
cpu0->cpu0_L2C PREFETCH     ACCESS:          0 HIT:          0 MISS:          0 MSHR_MERGE:          0
cpu0->cpu0_L2C WRITE        ACCESS:        761 HIT:        761 MISS:          0 MSHR_MERGE:          0
cpu0->cpu0_L2C TRANSLATION  ACCESS:         80 HIT:          5 MISS:         75 MSHR_MERGE:          0
cpu0->cpu0_L2C PREFETCH REQUESTED:          0 ISSUED:          0 USEFUL:          0 USELESS:          0
cpu0->cpu0_L2C AVERAGE MISS LATENCY: 188.7 cycles
cpu0->cpu0_L1I TOTAL        ACCESS:    1221038 HIT:    1220616 MISS:        422 MSHR_MERGE:         97
cpu0->cpu0_L1I LOAD         ACCESS:    1221038 HIT:    1220616 MISS:        422 MSHR_MERGE:         97
cpu0->cpu0_L1I RFO          ACCESS:          0 HIT:          0 MISS:          0 MSHR_MERGE:          0
cpu0->cpu0_L1I PREFETCH     ACCESS:          0 HIT:          0 MISS:          0 MSHR_MERGE:          0
cpu0->cpu0_L1I WRITE        ACCESS:          0 HIT:          0 MISS:          0 MSHR_MERGE:          0
cpu0->cpu0_L1I TRANSLATION  ACCESS:          0 HIT:          0 MISS:          0 MSHR_MERGE:          0
cpu0->cpu0_L1I PREFETCH REQUESTED:          0 ISSUED:          0 USEFUL:          0 USELESS:          0
cpu0->cpu0_L1I AVERAGE MISS LATENCY: 7.049 cycles
cpu0->cpu0_L1D TOTAL        ACCESS:    9119155 HIT:    9116393 MISS:       2762 MSHR_MERGE:       1421
cpu0->cpu0_L1D LOAD         ACCESS:    7184121 HIT:    7183021 MISS:       1100 MSHR_MERGE:        611
cpu0->cpu0_L1D RFO          ACCESS:          0 HIT:          0 MISS:          0 MSHR_MERGE:          0
cpu0->cpu0_L1D PREFETCH     ACCESS:          0 HIT:          0 MISS:          0 MSHR_MERGE:          0
cpu0->cpu0_L1D WRITE        ACCESS:    1934938 HIT:    1933357 MISS:       1581 MSHR_MERGE:        809
cpu0->cpu0_L1D TRANSLATION  ACCESS:         96 HIT:         15 MISS:         81 MSHR_MERGE:          1
cpu0->cpu0_L1D PREFETCH REQUESTED:          0 ISSUED:          0 USEFUL:          0 USELESS:          0
cpu0->cpu0_L1D AVERAGE MISS LATENCY: 188.8 cycles
cpu0->cpu0_ITLB TOTAL        ACCESS:    1011781 HIT:    1011781 MISS:          0 MSHR_MERGE:          0
cpu0->cpu0_ITLB LOAD         ACCESS:    1011781 HIT:    1011781 MISS:          0 MSHR_MERGE:          0
cpu0->cpu0_ITLB RFO          ACCESS:          0 HIT:          0 MISS:          0 MSHR_MERGE:          0
cpu0->cpu0_ITLB PREFETCH     ACCESS:          0 HIT:          0 MISS:          0 MSHR_MERGE:          0
cpu0->cpu0_ITLB WRITE        ACCESS:          0 HIT:          0 MISS:          0 MSHR_MERGE:          0
cpu0->cpu0_ITLB TRANSLATION  ACCESS:          0 HIT:          0 MISS:          0 MSHR_MERGE:          0
cpu0->cpu0_ITLB PREFETCH REQUESTED:          0 ISSUED:          0 USEFUL:          0 USELESS:          0
cpu0->cpu0_ITLB AVERAGE MISS LATENCY: - cycles
cpu0->cpu0_DTLB TOTAL        ACCESS:    8959745 HIT:    8957329 MISS:       2416 MSHR_MERGE:        457
cpu0->cpu0_DTLB LOAD         ACCESS:    8959745 HIT:    8957329 MISS:       2416 MSHR_MERGE:        457
cpu0->cpu0_DTLB RFO          ACCESS:          0 HIT:          0 MISS:          0 MSHR_MERGE:          0
cpu0->cpu0_DTLB PREFETCH     ACCESS:          0 HIT:          0 MISS:          0 MSHR_MERGE:          0
cpu0->cpu0_DTLB WRITE        ACCESS:          0 HIT:          0 MISS:          0 MSHR_MERGE:          0
cpu0->cpu0_DTLB TRANSLATION  ACCESS:          0 HIT:          0 MISS:          0 MSHR_MERGE:          0
cpu0->cpu0_DTLB PREFETCH REQUESTED:          0 ISSUED:          0 USEFUL:          0 USELESS:          0
cpu0->cpu0_DTLB AVERAGE MISS LATENCY: 22.78 cycles
cpu0->LLC TOTAL        ACCESS:       1278 HIT:          0 MISS:       1278 MSHR_MERGE:          0
cpu0->LLC LOAD         ACCESS:        457 HIT:          0 MISS:        457 MSHR_MERGE:          0
cpu0->LLC RFO          ACCESS:        746 HIT:          0 MISS:        746 MSHR_MERGE:          0
cpu0->LLC PREFETCH     ACCESS:          0 HIT:          0 MISS:          0 MSHR_MERGE:          0
cpu0->LLC WRITE        ACCESS:          0 HIT:          0 MISS:          0 MSHR_MERGE:          0
cpu0->LLC TRANSLATION  ACCESS:         75 HIT:          0 MISS:         75 MSHR_MERGE:          0
cpu0->LLC PREFETCH REQUESTED:          0 ISSUED:          0 USEFUL:          0 USELESS:          0
cpu0->LLC AVERAGE MISS LATENCY: 172.7 cycles

DRAM Statistics

Channel 0 RQ ROW_BUFFER_HIT:          0
  ROW_BUFFER_MISS:       1278
  AVG DBUS CONGESTED CYCLE: 2.903
Channel 0 WQ ROW_BUFFER_HIT:          0
  ROW_BUFFER_MISS:          0
  FULL:          0
Channel 0 REFRESHES ISSUED:       3368
