[VMEM] WARNING: physical memory size is smaller than virtual memory size.

*** ChampSim Multicore Out-of-Order Simulator ***
Warmup Instructions: 10000000
Simulation Instructions: 50000000
Number of CPUs: 1
Page size: 4096

Off-chip DRAM Size: 16 GiB Channels: 1 Width: 64-bit Data Rate: 3205 MT/s
Heartbeat CPU 0 instructions: 10000002 cycles: 2777504 heartbeat IPC: 3.6 cumulative IPC: 3.6 (Simulation time: 00 hr 00 min 22 sec)
Warmup finished CPU 0 instructions: 10000002 cycles: 2777504 cumulative IPC: 3.6 (Simulation time: 00 hr 00 min 22 sec)
Warmup complete CPU 0 instructions: 10000002 cycles: 2777504 cumulative IPC: 3.6 (Simulation time: 00 hr 00 min 22 sec)
Heartbeat CPU 0 instructions: 20000005 cycles: 12086825 heartbeat IPC: 1.074 cumulative IPC: 1.074 (Simulation time: 00 hr 01 min 19 sec)
Heartbeat CPU 0 instructions: 30000007 cycles: 19332311 heartbeat IPC: 1.38 cumulative IPC: 1.208 (Simulation time: 00 hr 02 min 05 sec)
Heartbeat CPU 0 instructions: 40000009 cycles: 28679230 heartbeat IPC: 1.07 cumulative IPC: 1.158 (Simulation time: 00 hr 03 min 02 sec)
Heartbeat CPU 0 instructions: 50000011 cycles: 35786852 heartbeat IPC: 1.407 cumulative IPC: 1.212 (Simulation time: 00 hr 03 min 49 sec)
Simulation finished CPU 0 instructions: 50000001 cycles: 42452220 cumulative IPC: 1.178 (Simulation time: 00 hr 04 min 48 sec)
Simulation complete CPU 0 instructions: 50000001 cycles: 42452220 cumulative IPC: 1.178 (Simulation time: 00 hr 04 min 48 sec)

ChampSim completed all CPUs

=== Simulation ===
CPU 0 runs traces/654.roms_s-293B.champsimtrace.xz

Region of Interest Statistics

CPU 0 cumulative IPC: 1.178 instructions: 50000001 cycles: 42452220
CPU 0 Branch Prediction Accuracy: 99.79% MPKI: 0.02728 Average ROB Occupancy at Mispredict: 322.2
Branch type MPKI
BRANCH_DIRECT_JUMP: 0
BRANCH_INDIRECT: 0
BRANCH_CONDITIONAL: 0.02728
BRANCH_DIRECT_CALL: 0
BRANCH_INDIRECT_CALL: 0
BRANCH_RETURN: 0

cpu0->cpu0_STLB TOTAL        ACCESS:      14266 HIT:       9226 MISS:       5040 MSHR_MERGE:          0
cpu0->cpu0_STLB LOAD         ACCESS:      14266 HIT:       9226 MISS:       5040 MSHR_MERGE:          0
cpu0->cpu0_STLB RFO          ACCESS:          0 HIT:          0 MISS:          0 MSHR_MERGE:          0
cpu0->cpu0_STLB PREFETCH     ACCESS:          0 HIT:          0 MISS:          0 MSHR_MERGE:          0
cpu0->cpu0_STLB WRITE        ACCESS:          0 HIT:          0 MISS:          0 MSHR_MERGE:          0
cpu0->cpu0_STLB TRANSLATION  ACCESS:          0 HIT:          0 MISS:          0 MSHR_MERGE:          0
cpu0->cpu0_STLB PREFETCH REQUESTED:          0 ISSUED:          0 USEFUL:          0 USELESS:          0
cpu0->cpu0_STLB AVERAGE MISS LATENCY: 894.1 cycles
cpu0->cpu0_L2C TOTAL        ACCESS:     878784 HIT:     357230 MISS:     521554 MSHR_MERGE:          0
cpu0->cpu0_L2C LOAD         ACCESS:     366066 HIT:     103898 MISS:     262168 MSHR_MERGE:          0
cpu0->cpu0_L2C RFO          ACCESS:     250785 HIT:        932 MISS:     249853 MSHR_MERGE:          0
cpu0->cpu0_L2C PREFETCH     ACCESS:          0 HIT:          0 MISS:          0 MSHR_MERGE:          0
cpu0->cpu0_L2C WRITE        ACCESS:     251769 HIT:     251376 MISS:        393 MSHR_MERGE:          0
cpu0->cpu0_L2C TRANSLATION  ACCESS:      10164 HIT:       1024 MISS:       9140 MSHR_MERGE:          0
cpu0->cpu0_L2C PREFETCH REQUESTED:          0 ISSUED:          0 USEFUL:          0 USELESS:          0
cpu0->cpu0_L2C AVERAGE MISS LATENCY: 171.2 cycles
cpu0->cpu0_L1I TOTAL        ACCESS:   10012865 HIT:   10012865 MISS:          0 MSHR_MERGE:          0
cpu0->cpu0_L1I LOAD         ACCESS:   10012865 HIT:   10012865 MISS:          0 MSHR_MERGE:          0
cpu0->cpu0_L1I RFO          ACCESS:          0 HIT:          0 MISS:          0 MSHR_MERGE:          0
cpu0->cpu0_L1I PREFETCH     ACCESS:          0 HIT:          0 MISS:          0 MSHR_MERGE:          0
cpu0->cpu0_L1I WRITE        ACCESS:          0 HIT:          0 MISS:          0 MSHR_MERGE:          0
cpu0->cpu0_L1I TRANSLATION  ACCESS:          0 HIT:          0 MISS:          0 MSHR_MERGE:          0
cpu0->cpu0_L1I PREFETCH REQUESTED:          0 ISSUED:          0 USEFUL:          0 USELESS:          0
cpu0->cpu0_L1I AVERAGE MISS LATENCY: - cycles
cpu0->cpu0_L1D TOTAL        ACCESS:   15660933 HIT:   14162693 MISS:    1498240 MSHR_MERGE:     871174
cpu0->cpu0_L1D LOAD         ACCESS:   11024296 HIT:   10398314 MISS:     625982 MSHR_MERGE:     259916
cpu0->cpu0_L1D RFO          ACCESS:          0 HIT:          0 MISS:          0 MSHR_MERGE:          0
cpu0->cpu0_L1D PREFETCH     ACCESS:          0 HIT:          0 MISS:          0 MSHR_MERGE:          0
cpu0->cpu0_L1D WRITE        ACCESS:    4623968 HIT:    3761923 MISS:     862045 MSHR_MERGE:     611209
cpu0->cpu0_L1D TRANSLATION  ACCESS:      12669 HIT:       2456 MISS:      10213 MSHR_MERGE:         49
cpu0->cpu0_L1D PREFETCH REQUESTED:          0 ISSUED:          0 USEFUL:          0 USELESS:          0
cpu0->cpu0_L1D AVERAGE MISS LATENCY: 151.3 cycles
cpu0->cpu0_ITLB TOTAL        ACCESS:    7430261 HIT:    7430261 MISS:          0 MSHR_MERGE:          0
cpu0->cpu0_ITLB LOAD         ACCESS:    7430261 HIT:    7430261 MISS:          0 MSHR_MERGE:          0
cpu0->cpu0_ITLB RFO          ACCESS:          0 HIT:          0 MISS:          0 MSHR_MERGE:          0
cpu0->cpu0_ITLB PREFETCH     ACCESS:          0 HIT:          0 MISS:          0 MSHR_MERGE:          0
cpu0->cpu0_ITLB WRITE        ACCESS:          0 HIT:          0 MISS:          0 MSHR_MERGE:          0
cpu0->cpu0_ITLB TRANSLATION  ACCESS:          0 HIT:          0 MISS:          0 MSHR_MERGE:          0
cpu0->cpu0_ITLB PREFETCH REQUESTED:          0 ISSUED:          0 USEFUL:          0 USELESS:          0
cpu0->cpu0_ITLB AVERAGE MISS LATENCY: - cycles
cpu0->cpu0_DTLB TOTAL        ACCESS:   14815431 HIT:   14777056 MISS:      38375 MSHR_MERGE:      24109
cpu0->cpu0_DTLB LOAD         ACCESS:   14815431 HIT:   14777056 MISS:      38375 MSHR_MERGE:      24109
cpu0->cpu0_DTLB RFO          ACCESS:          0 HIT:          0 MISS:          0 MSHR_MERGE:          0
cpu0->cpu0_DTLB PREFETCH     ACCESS:          0 HIT:          0 MISS:          0 MSHR_MERGE:          0
cpu0->cpu0_DTLB WRITE        ACCESS:          0 HIT:          0 MISS:          0 MSHR_MERGE:          0
cpu0->cpu0_DTLB TRANSLATION  ACCESS:          0 HIT:          0 MISS:          0 MSHR_MERGE:          0
cpu0->cpu0_DTLB PREFETCH REQUESTED:          0 ISSUED:          0 USEFUL:          0 USELESS:          0
cpu0->cpu0_DTLB AVERAGE MISS LATENCY: 321.2 cycles
cpu0->LLC TOTAL        ACCESS:     773507 HIT:     430374 MISS:     343133 MSHR_MERGE:          0
cpu0->LLC LOAD         ACCESS:     262168 HIT:     119005 MISS:     143163 MSHR_MERGE:          0
cpu0->LLC RFO          ACCESS:     249853 HIT:      58977 MISS:     190876 MSHR_MERGE:          0
cpu0->LLC PREFETCH     ACCESS:          0 HIT:          0 MISS:          0 MSHR_MERGE:          0
cpu0->LLC WRITE        ACCESS:     252346 HIT:     252298 MISS:         48 MSHR_MERGE:          0
cpu0->LLC TRANSLATION  ACCESS:       9140 HIT:         94 MISS:       9046 MSHR_MERGE:          0
cpu0->LLC PREFETCH REQUESTED:          0 ISSUED:          0 USEFUL:          0 USELESS:          0
cpu0->LLC AVERAGE MISS LATENCY: 236.5 cycles

DRAM Statistics

Channel 0 RQ ROW_BUFFER_HIT:       1688
  ROW_BUFFER_MISS:     340752
  AVG DBUS CONGESTED CYCLE: 6.95
Channel 0 WQ ROW_BUFFER_HIT:      64493
  ROW_BUFFER_MISS:     151055
  FULL:          0
Channel 0 REFRESHES ISSUED:       3538
