[VMEM] WARNING: physical memory size is smaller than virtual memory size.

*** ChampSim Multicore Out-of-Order Simulator ***
Warmup Instructions: 10000000
Simulation Instructions: 50000000
Number of CPUs: 1
Page size: 4096

Off-chip DRAM Size: 16 GiB Channels: 1 Width: 64-bit Data Rate: 3205 MT/s
Heartbeat CPU 0 instructions: 10000001 cycles: 2964776 heartbeat IPC: 3.373 cumulative IPC: 3.373 (Simulation time: 00 hr 00 min 28 sec)
Warmup finished CPU 0 instructions: 10000001 cycles: 2964776 cumulative IPC: 3.373 (Simulation time: 00 hr 00 min 28 sec)
Warmup complete CPU 0 instructions: 10000001 cycles: 2964776 cumulative IPC: 3.373 (Simulation time: 00 hr 00 min 28 sec)
Heartbeat CPU 0 instructions: 20000002 cycles: 9167985 heartbeat IPC: 1.612 cumulative IPC: 1.612 (Simulation time: 00 hr 01 min 10 sec)
Heartbeat CPU 0 instructions: 30000006 cycles: 15319858 heartbeat IPC: 1.626 cumulative IPC: 1.619 (Simulation time: 00 hr 01 min 52 sec)
Heartbeat CPU 0 instructions: 40000007 cycles: 21417014 heartbeat IPC: 1.64 cumulative IPC: 1.626 (Simulation time: 00 hr 02 min 33 sec)
Heartbeat CPU 0 instructions: 50000007 cycles: 27542721 heartbeat IPC: 1.632 cumulative IPC: 1.627 (Simulation time: 00 hr 03 min 15 sec)
Simulation finished CPU 0 instructions: 50000001 cycles: 34115861 cumulative IPC: 1.466 (Simulation time: 00 hr 04 min 11 sec)
Simulation complete CPU 0 instructions: 50000001 cycles: 34115861 cumulative IPC: 1.466 (Simulation time: 00 hr 04 min 11 sec)

ChampSim completed all CPUs

=== Simulation ===
CPU 0 runs traces/607.cactuBSSN_s-2421B.champsimtrace.xz

Region of Interest Statistics

CPU 0 cumulative IPC: 1.466 instructions: 50000001 cycles: 34115861
CPU 0 Branch Prediction Accuracy: 91.81% MPKI: 0.6739 Average ROB Occupancy at Mispredict: 304
Branch type MPKI
BRANCH_DIRECT_JUMP: 0.00124
BRANCH_INDIRECT: 0.00164
BRANCH_CONDITIONAL: 0.3431
BRANCH_DIRECT_CALL: 0.01318
BRANCH_INDIRECT_CALL: 6e-05
BRANCH_RETURN: 0.3147

cpu0->cpu0_STLB TOTAL        ACCESS:    2211710 HIT:    2208652 MISS:       3058 MSHR_MERGE:          0
cpu0->cpu0_STLB LOAD         ACCESS:    2211710 HIT:    2208652 MISS:       3058 MSHR_MERGE:          0
cpu0->cpu0_STLB RFO          ACCESS:          0 HIT:          0 MISS:          0 MSHR_MERGE:          0
cpu0->cpu0_STLB PREFETCH     ACCESS:          0 HIT:          0 MISS:          0 MSHR_MERGE:          0
cpu0->cpu0_STLB WRITE        ACCESS:          0 HIT:          0 MISS:          0 MSHR_MERGE:          0
cpu0->cpu0_STLB TRANSLATION  ACCESS:          0 HIT:          0 MISS:          0 MSHR_MERGE:          0
cpu0->cpu0_STLB PREFETCH REQUESTED:          0 ISSUED:          0 USEFUL:          0 USELESS:          0
cpu0->cpu0_STLB AVERAGE MISS LATENCY: 831.2 cycles
cpu0->cpu0_L2C TOTAL        ACCESS:    5468797 HIT:    5133886 MISS:     334911 MSHR_MERGE:          0
cpu0->cpu0_L2C LOAD         ACCESS:    4784834 HIT:    4489377 MISS:     295457 MSHR_MERGE:          0
cpu0->cpu0_L2C RFO          ACCESS:     321723 HIT:     289399 MISS:      32324 MSHR_MERGE:          0
cpu0->cpu0_L2C PREFETCH     ACCESS:          0 HIT:          0 MISS:          0 MSHR_MERGE:          0
cpu0->cpu0_L2C WRITE        ACCESS:     354794 HIT:     354748 MISS:         46 MSHR_MERGE:          0
cpu0->cpu0_L2C TRANSLATION  ACCESS:       7446 HIT:        362 MISS:       7084 MSHR_MERGE:          0
cpu0->cpu0_L2C PREFETCH REQUESTED:          0 ISSUED:          0 USEFUL:          0 USELESS:          0
cpu0->cpu0_L2C AVERAGE MISS LATENCY: 132.5 cycles
cpu0->cpu0_L1I TOTAL        ACCESS:   10856947 HIT:    8697387 MISS:    2159560 MSHR_MERGE:    1069806
cpu0->cpu0_L1I LOAD         ACCESS:   10856947 HIT:    8697387 MISS:    2159560 MSHR_MERGE:    1069806
cpu0->cpu0_L1I RFO          ACCESS:          0 HIT:          0 MISS:          0 MSHR_MERGE:          0
cpu0->cpu0_L1I PREFETCH     ACCESS:          0 HIT:          0 MISS:          0 MSHR_MERGE:          0
cpu0->cpu0_L1I WRITE        ACCESS:          0 HIT:          0 MISS:          0 MSHR_MERGE:          0
cpu0->cpu0_L1I TRANSLATION  ACCESS:          0 HIT:          0 MISS:          0 MSHR_MERGE:          0
cpu0->cpu0_L1I PREFETCH REQUESTED:          0 ISSUED:          0 USEFUL:          0 USELESS:          0
cpu0->cpu0_L1I AVERAGE MISS LATENCY: 7.333 cycles
cpu0->cpu0_L1D TOTAL        ACCESS:   18694833 HIT:   14287916 MISS:    4406917 MSHR_MERGE:     380386
cpu0->cpu0_L1D LOAD         ACCESS:   14395791 HIT:   10353577 MISS:    4042214 MSHR_MERGE:     344892
cpu0->cpu0_L1D RFO          ACCESS:          0 HIT:          0 MISS:          0 MSHR_MERGE:          0
cpu0->cpu0_L1D PREFETCH     ACCESS:          0 HIT:          0 MISS:          0 MSHR_MERGE:          0
cpu0->cpu0_L1D WRITE        ACCESS:    4291400 HIT:    3934207 MISS:     357193 MSHR_MERGE:      35430
cpu0->cpu0_L1D TRANSLATION  ACCESS:       7642 HIT:        132 MISS:       7510 MSHR_MERGE:         64
cpu0->cpu0_L1D PREFETCH REQUESTED:          0 ISSUED:          0 USEFUL:          0 USELESS:          0
cpu0->cpu0_L1D AVERAGE MISS LATENCY: 19.9 cycles
cpu0->cpu0_ITLB TOTAL        ACCESS:    8681222 HIT:    8681095 MISS:        127 MSHR_MERGE:         67
cpu0->cpu0_ITLB LOAD         ACCESS:    8681222 HIT:    8681095 MISS:        127 MSHR_MERGE:         67
cpu0->cpu0_ITLB RFO          ACCESS:          0 HIT:          0 MISS:          0 MSHR_MERGE:          0
cpu0->cpu0_ITLB PREFETCH     ACCESS:          0 HIT:          0 MISS:          0 MSHR_MERGE:          0
cpu0->cpu0_ITLB WRITE        ACCESS:          0 HIT:          0 MISS:          0 MSHR_MERGE:          0
cpu0->cpu0_ITLB TRANSLATION  ACCESS:          0 HIT:          0 MISS:          0 MSHR_MERGE:          0
cpu0->cpu0_ITLB PREFETCH REQUESTED:          0 ISSUED:          0 USEFUL:          0 USELESS:          0
cpu0->cpu0_ITLB AVERAGE MISS LATENCY: 781.2 cycles
cpu0->cpu0_DTLB TOTAL        ACCESS:   17630574 HIT:   15030483 MISS:    2600091 MSHR_MERGE:     388441
cpu0->cpu0_DTLB LOAD         ACCESS:   17630574 HIT:   15030483 MISS:    2600091 MSHR_MERGE:     388441
cpu0->cpu0_DTLB RFO          ACCESS:          0 HIT:          0 MISS:          0 MSHR_MERGE:          0
cpu0->cpu0_DTLB PREFETCH     ACCESS:          0 HIT:          0 MISS:          0 MSHR_MERGE:          0
cpu0->cpu0_DTLB WRITE        ACCESS:          0 HIT:          0 MISS:          0 MSHR_MERGE:          0
cpu0->cpu0_DTLB TRANSLATION  ACCESS:          0 HIT:          0 MISS:          0 MSHR_MERGE:          0
cpu0->cpu0_DTLB PREFETCH REQUESTED:          0 ISSUED:          0 USEFUL:          0 USELESS:          0
cpu0->cpu0_DTLB AVERAGE MISS LATENCY: 6.169 cycles
cpu0->LLC TOTAL        ACCESS:     373450 HIT:     192841 MISS:     180609 MSHR_MERGE:          0
cpu0->LLC LOAD         ACCESS:     295457 HIT:     144549 MISS:     150908 MSHR_MERGE:          0
cpu0->LLC RFO          ACCESS:      32154 HIT:       7481 MISS:      24673 MSHR_MERGE:          0
cpu0->LLC PREFETCH     ACCESS:          0 HIT:          0 MISS:          0 MSHR_MERGE:          0
cpu0->LLC WRITE        ACCESS:      38755 HIT:      38653 MISS:        102 MSHR_MERGE:          0
cpu0->LLC TRANSLATION  ACCESS:       7084 HIT:       2158 MISS:       4926 MSHR_MERGE:          0
cpu0->LLC PREFETCH REQUESTED:          0 ISSUED:          0 USEFUL:          0 USELESS:          0
cpu0->LLC AVERAGE MISS LATENCY: 216.9 cycles

DRAM Statistics

Channel 0 RQ ROW_BUFFER_HIT:        117
  ROW_BUFFER_MISS:     180390
  AVG DBUS CONGESTED CYCLE: 9.389
Channel 0 WQ ROW_BUFFER_HIT:       4089
  ROW_BUFFER_MISS:      29881
  FULL:          0
Channel 0 REFRESHES ISSUED:       2843
