[VMEM] WARNING: physical memory size is smaller than virtual memory size.

*** ChampSim Multicore Out-of-Order Simulator ***
Warmup Instructions: 10000000
Simulation Instructions: 50000000
Number of CPUs: 1
Page size: 4096

Off-chip DRAM Size: 16 GiB Channels: 1 Width: 64-bit Data Rate: 3205 MT/s
Heartbeat CPU 0 instructions: 10000002 cycles: 2820552 heartbeat IPC: 3.545 cumulative IPC: 3.545 (Simulation time: 00 hr 00 min 33 sec)
Warmup finished CPU 0 instructions: 10000002 cycles: 2820552 cumulative IPC: 3.545 (Simulation time: 00 hr 00 min 33 sec)
Warmup complete CPU 0 instructions: 10000002 cycles: 2820552 cumulative IPC: 3.545 (Simulation time: 00 hr 00 min 33 sec)
Heartbeat CPU 0 instructions: 20000003 cycles: 10861996 heartbeat IPC: 1.244 cumulative IPC: 1.244 (Simulation time: 00 hr 01 min 30 sec)
Heartbeat CPU 0 instructions: 30000007 cycles: 18922251 heartbeat IPC: 1.241 cumulative IPC: 1.242 (Simulation time: 00 hr 02 min 29 sec)
Heartbeat CPU 0 instructions: 40000011 cycles: 26988049 heartbeat IPC: 1.24 cumulative IPC: 1.241 (Simulation time: 00 hr 03 min 28 sec)
Heartbeat CPU 0 instructions: 50000015 cycles: 34917537 heartbeat IPC: 1.261 cumulative IPC: 1.246 (Simulation time: 00 hr 04 min 27 sec)
Simulation finished CPU 0 instructions: 50000004 cycles: 40027265 cumulative IPC: 1.249 (Simulation time: 00 hr 05 min 26 sec)
Simulation complete CPU 0 instructions: 50000004 cycles: 40027265 cumulative IPC: 1.249 (Simulation time: 00 hr 05 min 26 sec)

ChampSim completed all CPUs

=== Simulation ===
CPU 0 runs traces/628.pop2_s-17B.champsimtrace.xz

Region of Interest Statistics

CPU 0 cumulative IPC: 1.249 instructions: 50000004 cycles: 40027265
CPU 0 Branch Prediction Accuracy: 97.21% MPKI: 3.197 Average ROB Occupancy at Mispredict: 110.2
Branch type MPKI
BRANCH_DIRECT_JUMP: 0.05126
BRANCH_INDIRECT: 0.00164
BRANCH_CONDITIONAL: 3.144
BRANCH_DIRECT_CALL: 0
BRANCH_INDIRECT_CALL: 0
BRANCH_RETURN: 0

cpu0->cpu0_STLB TOTAL        ACCESS:      43938 HIT:      41473 MISS:       2465 MSHR_MERGE:          0
cpu0->cpu0_STLB LOAD         ACCESS:      43938 HIT:      41473 MISS:       2465 MSHR_MERGE:          0
cpu0->cpu0_STLB RFO          ACCESS:          0 HIT:          0 MISS:          0 MSHR_MERGE:          0
cpu0->cpu0_STLB PREFETCH     ACCESS:          0 HIT:          0 MISS:          0 MSHR_MERGE:          0
cpu0->cpu0_STLB WRITE        ACCESS:          0 HIT:          0 MISS:          0 MSHR_MERGE:          0
cpu0->cpu0_STLB TRANSLATION  ACCESS:          0 HIT:          0 MISS:          0 MSHR_MERGE:          0
cpu0->cpu0_STLB PREFETCH REQUESTED:          0 ISSUED:          0 USEFUL:          0 USELESS:          0
cpu0->cpu0_STLB AVERAGE MISS LATENCY: 744.1 cycles
cpu0->cpu0_L2C TOTAL        ACCESS:    1496789 HIT:    1036019 MISS:     460770 MSHR_MERGE:          0
cpu0->cpu0_L2C LOAD         ACCESS:     812826 HIT:     467840 MISS:     344986 MSHR_MERGE:          0
cpu0->cpu0_L2C RFO          ACCESS:     273762 HIT:     162977 MISS:     110785 MSHR_MERGE:          0
cpu0->cpu0_L2C PREFETCH     ACCESS:          0 HIT:          0 MISS:          0 MSHR_MERGE:          0
cpu0->cpu0_L2C WRITE        ACCESS:     404970 HIT:     404963 MISS:          7 MSHR_MERGE:          0
cpu0->cpu0_L2C TRANSLATION  ACCESS:       5231 HIT:        239 MISS:       4992 MSHR_MERGE:          0
cpu0->cpu0_L2C PREFETCH REQUESTED:          0 ISSUED:          0 USEFUL:          0 USELESS:          0
cpu0->cpu0_L2C AVERAGE MISS LATENCY: 78.82 cycles
cpu0->cpu0_L1I TOTAL        ACCESS:    3873609 HIT:    3759902 MISS:     113707 MSHR_MERGE:      54539
cpu0->cpu0_L1I LOAD         ACCESS:    3873609 HIT:    3759902 MISS:     113707 MSHR_MERGE:      54539
cpu0->cpu0_L1I RFO          ACCESS:          0 HIT:          0 MISS:          0 MSHR_MERGE:          0
cpu0->cpu0_L1I PREFETCH     ACCESS:          0 HIT:          0 MISS:          0 MSHR_MERGE:          0
cpu0->cpu0_L1I WRITE        ACCESS:          0 HIT:          0 MISS:          0 MSHR_MERGE:          0
cpu0->cpu0_L1I TRANSLATION  ACCESS:          0 HIT:          0 MISS:          0 MSHR_MERGE:          0
cpu0->cpu0_L1I PREFETCH REQUESTED:          0 ISSUED:          0 USEFUL:          0 USELESS:          0
cpu0->cpu0_L1I AVERAGE MISS LATENCY: 21.83 cycles
cpu0->cpu0_L1D TOTAL        ACCESS:   13006051 HIT:   10659753 MISS:    2346298 MSHR_MERGE:    1313641
cpu0->cpu0_L1D LOAD         ACCESS:    9215119 HIT:    7792791 MISS:    1422328 MSHR_MERGE:     668669
cpu0->cpu0_L1D RFO          ACCESS:          0 HIT:          0 MISS:          0 MSHR_MERGE:          0
cpu0->cpu0_L1D PREFETCH     ACCESS:          0 HIT:          0 MISS:          0 MSHR_MERGE:          0
cpu0->cpu0_L1D WRITE        ACCESS:    3785179 HIT:    2866572 MISS:     918607 MSHR_MERGE:     644840
cpu0->cpu0_L1D TRANSLATION  ACCESS:       5753 HIT:        390 MISS:       5363 MSHR_MERGE:        132
cpu0->cpu0_L1D PREFETCH REQUESTED:          0 ISSUED:          0 USEFUL:          0 USELESS:          0
cpu0->cpu0_L1D AVERAGE MISS LATENCY: 42.83 cycles
cpu0->cpu0_ITLB TOTAL        ACCESS:    3159087 HIT:    3153188 MISS:       5899 MSHR_MERGE:       3420
cpu0->cpu0_ITLB LOAD         ACCESS:    3159087 HIT:    3153188 MISS:       5899 MSHR_MERGE:       3420
cpu0->cpu0_ITLB RFO          ACCESS:          0 HIT:          0 MISS:          0 MSHR_MERGE:          0
cpu0->cpu0_ITLB PREFETCH     ACCESS:          0 HIT:          0 MISS:          0 MSHR_MERGE:          0
cpu0->cpu0_ITLB WRITE        ACCESS:          0 HIT:          0 MISS:          0 MSHR_MERGE:          0
cpu0->cpu0_ITLB TRANSLATION  ACCESS:          0 HIT:          0 MISS:          0 MSHR_MERGE:          0
cpu0->cpu0_ITLB PREFETCH REQUESTED:          0 ISSUED:          0 USEFUL:          0 USELESS:          0
cpu0->cpu0_ITLB AVERAGE MISS LATENCY: 5 cycles
cpu0->cpu0_DTLB TOTAL        ACCESS:   12511887 HIT:   12440522 MISS:      71365 MSHR_MERGE:      29906
cpu0->cpu0_DTLB LOAD         ACCESS:   12511887 HIT:   12440522 MISS:      71365 MSHR_MERGE:      29906
cpu0->cpu0_DTLB RFO          ACCESS:          0 HIT:          0 MISS:          0 MSHR_MERGE:          0
cpu0->cpu0_DTLB PREFETCH     ACCESS:          0 HIT:          0 MISS:          0 MSHR_MERGE:          0
cpu0->cpu0_DTLB WRITE        ACCESS:          0 HIT:          0 MISS:          0 MSHR_MERGE:          0
cpu0->cpu0_DTLB TRANSLATION  ACCESS:          0 HIT:          0 MISS:          0 MSHR_MERGE:          0
cpu0->cpu0_DTLB PREFETCH REQUESTED:          0 ISSUED:          0 USEFUL:          0 USELESS:          0
cpu0->cpu0_DTLB AVERAGE MISS LATENCY: 49.3 cycles
cpu0->LLC TOTAL        ACCESS:     636993 HIT:     482818 MISS:     154175 MSHR_MERGE:          0
cpu0->LLC LOAD         ACCESS:     344986 HIT:     206215 MISS:     138771 MSHR_MERGE:          0
cpu0->LLC RFO          ACCESS:     110785 HIT:      99934 MISS:      10851 MSHR_MERGE:          0
cpu0->LLC PREFETCH     ACCESS:          0 HIT:          0 MISS:          0 MSHR_MERGE:          0
cpu0->LLC WRITE        ACCESS:     176230 HIT:     175209 MISS:       1021 MSHR_MERGE:          0
cpu0->LLC TRANSLATION  ACCESS:       4992 HIT:       1460 MISS:       3532 MSHR_MERGE:          0
cpu0->LLC PREFETCH REQUESTED:          0 ISSUED:          0 USEFUL:          0 USELESS:          0
cpu0->LLC AVERAGE MISS LATENCY: 189.7 cycles

DRAM Statistics

Channel 0 RQ ROW_BUFFER_HIT:       4154
  ROW_BUFFER_MISS:     149000
  AVG DBUS CONGESTED CYCLE: 15.56
Channel 0 WQ ROW_BUFFER_HIT:      11945
  ROW_BUFFER_MISS:      32609
  FULL:          0
Channel 0 REFRESHES ISSUED:       3335
