[VMEM] WARNING: physical memory size is smaller than virtual memory size.

*** ChampSim Multicore Out-of-Order Simulator ***
Warmup Instructions: 10000000
Simulation Instructions: 50000000
Number of CPUs: 1
Page size: 4096

Off-chip DRAM Size: 16 GiB Channels: 1 Width: 64-bit Data Rate: 3205 MT/s
Heartbeat CPU 0 instructions: 10000001 cycles: 2524987 heartbeat IPC: 3.96 cumulative IPC: 3.96 (Simulation time: 00 hr 00 min 27 sec)
Warmup finished CPU 0 instructions: 10000001 cycles: 2524987 cumulative IPC: 3.96 (Simulation time: 00 hr 00 min 27 sec)
Warmup complete CPU 0 instructions: 10000001 cycles: 2524987 cumulative IPC: 3.96 (Simulation time: 00 hr 00 min 27 sec)
Heartbeat CPU 0 instructions: 20000001 cycles: 8816223 heartbeat IPC: 1.59 cumulative IPC: 1.59 (Simulation time: 00 hr 01 min 00 sec)
Heartbeat CPU 0 instructions: 30000005 cycles: 14950065 heartbeat IPC: 1.63 cumulative IPC: 1.61 (Simulation time: 00 hr 01 min 31 sec)
Heartbeat CPU 0 instructions: 40000006 cycles: 21074849 heartbeat IPC: 1.633 cumulative IPC: 1.617 (Simulation time: 00 hr 02 min 01 sec)
Heartbeat CPU 0 instructions: 50000006 cycles: 27186486 heartbeat IPC: 1.636 cumulative IPC: 1.622 (Simulation time: 00 hr 02 min 32 sec)
Simulation finished CPU 0 instructions: 50000003 cycles: 30842981 cumulative IPC: 1.621 (Simulation time: 00 hr 03 min 02 sec)
Simulation complete CPU 0 instructions: 50000003 cycles: 30842981 cumulative IPC: 1.621 (Simulation time: 00 hr 03 min 02 sec)

ChampSim completed all CPUs

=== Simulation ===
CPU 0 runs traces/648.exchange2_s-387B.champsimtrace.xz

Region of Interest Statistics

CPU 0 cumulative IPC: 1.621 instructions: 50000003 cycles: 30842981
CPU 0 Branch Prediction Accuracy: 92.16% MPKI: 13.2 Average ROB Occupancy at Mispredict: 32.99
Branch type MPKI
BRANCH_DIRECT_JUMP: 0.5307
BRANCH_INDIRECT: 0
BRANCH_CONDITIONAL: 12.67
BRANCH_DIRECT_CALL: 0.00166
BRANCH_INDIRECT_CALL: 0
BRANCH_RETURN: 0.00166

cpu0->cpu0_STLB TOTAL        ACCESS:         37 HIT:          0 MISS:         37 MSHR_MERGE:          0
cpu0->cpu0_STLB LOAD         ACCESS:         37 HIT:          0 MISS:         37 MSHR_MERGE:          0
cpu0->cpu0_STLB RFO          ACCESS:          0 HIT:          0 MISS:          0 MSHR_MERGE:          0
cpu0->cpu0_STLB PREFETCH     ACCESS:          0 HIT:          0 MISS:          0 MSHR_MERGE:          0
cpu0->cpu0_STLB WRITE        ACCESS:          0 HIT:          0 MISS:          0 MSHR_MERGE:          0
cpu0->cpu0_STLB TRANSLATION  ACCESS:          0 HIT:          0 MISS:          0 MSHR_MERGE:          0
cpu0->cpu0_STLB PREFETCH REQUESTED:          0 ISSUED:          0 USEFUL:          0 USELESS:          0
cpu0->cpu0_STLB AVERAGE MISS LATENCY: 722.9 cycles
cpu0->cpu0_L2C TOTAL        ACCESS:      22995 HIT:      21837 MISS:       1158 MSHR_MERGE:          0
cpu0->cpu0_L2C LOAD         ACCESS:      22851 HIT:      21821 MISS:       1030 MSHR_MERGE:          0
cpu0->cpu0_L2C RFO          ACCESS:         79 HIT:          8 MISS:         71 MSHR_MERGE:          0
cpu0->cpu0_L2C PREFETCH     ACCESS:          0 HIT:          0 MISS:          0 MSHR_MERGE:          0
cpu0->cpu0_L2C WRITE        ACCESS:          8 HIT:          8 MISS:          0 MSHR_MERGE:          0
cpu0->cpu0_L2C TRANSLATION  ACCESS:         57 HIT:          0 MISS:         57 MSHR_MERGE:          0
cpu0->cpu0_L2C PREFETCH REQUESTED:          0 ISSUED:          0 USEFUL:          0 USELESS:          0
cpu0->cpu0_L2C AVERAGE MISS LATENCY: 185.8 cycles
cpu0->cpu0_L1I TOTAL        ACCESS:    1464724 HIT:    1425932 MISS:      38792 MSHR_MERGE:      15984
cpu0->cpu0_L1I LOAD         ACCESS:    1464724 HIT:    1425932 MISS:      38792 MSHR_MERGE:      15984
cpu0->cpu0_L1I RFO          ACCESS:          0 HIT:          0 MISS:          0 MSHR_MERGE:          0
cpu0->cpu0_L1I PREFETCH     ACCESS:          0 HIT:          0 MISS:          0 MSHR_MERGE:          0
cpu0->cpu0_L1I WRITE        ACCESS:          0 HIT:          0 MISS:          0 MSHR_MERGE:          0
cpu0->cpu0_L1I TRANSLATION  ACCESS:          0 HIT:          0 MISS:          0 MSHR_MERGE:          0
cpu0->cpu0_L1I PREFETCH REQUESTED:          0 ISSUED:          0 USEFUL:          0 USELESS:          0
cpu0->cpu0_L1I AVERAGE MISS LATENCY: 15 cycles
cpu0->cpu0_L1D TOTAL        ACCESS:   13501901 HIT:   13501037 MISS:        864 MSHR_MERGE:        685
cpu0->cpu0_L1D LOAD         ACCESS:    7656566 HIT:    7656492 MISS:         74 MSHR_MERGE:         31
cpu0->cpu0_L1D RFO          ACCESS:          0 HIT:          0 MISS:          0 MSHR_MERGE:          0
cpu0->cpu0_L1D PREFETCH     ACCESS:          0 HIT:          0 MISS:          0 MSHR_MERGE:          0
cpu0->cpu0_L1D WRITE        ACCESS:    5845260 HIT:    5844527 MISS:        733 MSHR_MERGE:        654
cpu0->cpu0_L1D TRANSLATION  ACCESS:         75 HIT:         18 MISS:         57 MSHR_MERGE:          0
cpu0->cpu0_L1D PREFETCH REQUESTED:          0 ISSUED:          0 USEFUL:          0 USELESS:          0
cpu0->cpu0_L1D AVERAGE MISS LATENCY: 200.7 cycles
cpu0->cpu0_ITLB TOTAL        ACCESS:    1165033 HIT:    1164978 MISS:         55 MSHR_MERGE:         31
cpu0->cpu0_ITLB LOAD         ACCESS:    1165033 HIT:    1164978 MISS:         55 MSHR_MERGE:         31
cpu0->cpu0_ITLB RFO          ACCESS:          0 HIT:          0 MISS:          0 MSHR_MERGE:          0
cpu0->cpu0_ITLB PREFETCH     ACCESS:          0 HIT:          0 MISS:          0 MSHR_MERGE:          0
cpu0->cpu0_ITLB WRITE        ACCESS:          0 HIT:          0 MISS:          0 MSHR_MERGE:          0
cpu0->cpu0_ITLB TRANSLATION  ACCESS:          0 HIT:          0 MISS:          0 MSHR_MERGE:          0
cpu0->cpu0_ITLB PREFETCH REQUESTED:          0 ISSUED:          0 USEFUL:          0 USELESS:          0
cpu0->cpu0_ITLB AVERAGE MISS LATENCY: 703.7 cycles
cpu0->cpu0_DTLB TOTAL        ACCESS:   12471765 HIT:   12471722 MISS:         43 MSHR_MERGE:         30
cpu0->cpu0_DTLB LOAD         ACCESS:   12471765 HIT:   12471722 MISS:         43 MSHR_MERGE:         30
cpu0->cpu0_DTLB RFO          ACCESS:          0 HIT:          0 MISS:          0 MSHR_MERGE:          0
cpu0->cpu0_DTLB PREFETCH     ACCESS:          0 HIT:          0 MISS:          0 MSHR_MERGE:          0
cpu0->cpu0_DTLB WRITE        ACCESS:          0 HIT:          0 MISS:          0 MSHR_MERGE:          0
cpu0->cpu0_DTLB TRANSLATION  ACCESS:          0 HIT:          0 MISS:          0 MSHR_MERGE:          0
cpu0->cpu0_DTLB PREFETCH REQUESTED:          0 ISSUED:          0 USEFUL:          0 USELESS:          0
cpu0->cpu0_DTLB AVERAGE MISS LATENCY: 775.5 cycles
cpu0->LLC TOTAL        ACCESS:       1158 HIT:          0 MISS:       1158 MSHR_MERGE:          0
cpu0->LLC LOAD         ACCESS:       1030 HIT:          0 MISS:       1030 MSHR_MERGE:          0
cpu0->LLC RFO          ACCESS:         71 HIT:          0 MISS:         71 MSHR_MERGE:          0
cpu0->LLC PREFETCH     ACCESS:          0 HIT:          0 MISS:          0 MSHR_MERGE:          0
cpu0->LLC WRITE        ACCESS:          0 HIT:          0 MISS:          0 MSHR_MERGE:          0
cpu0->LLC TRANSLATION  ACCESS:         57 HIT:          0 MISS:         57 MSHR_MERGE:          0
cpu0->LLC PREFETCH REQUESTED:          0 ISSUED:          0 USEFUL:          0 USELESS:          0
cpu0->LLC AVERAGE MISS LATENCY: 169.8 cycles

DRAM Statistics

Channel 0 RQ ROW_BUFFER_HIT:         42
  ROW_BUFFER_MISS:       1116
  AVG DBUS CONGESTED CYCLE: 2.976
Channel 0 WQ ROW_BUFFER_HIT:          0
  ROW_BUFFER_MISS:          0
  FULL:          0
Channel 0 REFRESHES ISSUED:       2570
