[VMEM] WARNING: physical memory size is smaller than virtual memory size.

*** ChampSim Multicore Out-of-Order Simulator ***
Warmup Instructions: 10000000
Simulation Instructions: 50000000
Number of CPUs: 1
Page size: 4096

Off-chip DRAM Size: 16 GiB Channels: 1 Width: 64-bit Data Rate: 3205 MT/s
Heartbeat CPU 0 instructions: 10000000 cycles: 3547766 heartbeat IPC: 2.819 cumulative IPC: 2.819 (Simulation time: 00 hr 00 min 28 sec)
Warmup finished CPU 0 instructions: 10000000 cycles: 3547766 cumulative IPC: 2.819 (Simulation time: 00 hr 00 min 28 sec)
Warmup complete CPU 0 instructions: 10000000 cycles: 3547766 cumulative IPC: 2.819 (Simulation time: 00 hr 00 min 28 sec)
Heartbeat CPU 0 instructions: 20000001 cycles: 24918733 heartbeat IPC: 0.4679 cumulative IPC: 0.4679 (Simulation time: 00 hr 02 min 37 sec)
Heartbeat CPU 0 instructions: 30000003 cycles: 45870276 heartbeat IPC: 0.4773 cumulative IPC: 0.4726 (Simulation time: 00 hr 04 min 42 sec)
Heartbeat CPU 0 instructions: 40000004 cycles: 65996977 heartbeat IPC: 0.4969 cumulative IPC: 0.4804 (Simulation time: 00 hr 06 min 41 sec)
Heartbeat CPU 0 instructions: 50000005 cycles: 85393222 heartbeat IPC: 0.5156 cumulative IPC: 0.4887 (Simulation time: 00 hr 08 min 36 sec)
Simulation finished CPU 0 instructions: 50000000 cycles: 100460748 cumulative IPC: 0.4977 (Simulation time: 00 hr 10 min 26 sec)
Simulation complete CPU 0 instructions: 50000000 cycles: 100460748 cumulative IPC: 0.4977 (Simulation time: 00 hr 10 min 26 sec)

ChampSim completed all CPUs

=== Simulation ===
CPU 0 runs traces/619.lbm_s-2676B.champsimtrace.xz

Region of Interest Statistics

CPU 0 cumulative IPC: 0.4977 instructions: 50000000 cycles: 100460748
CPU 0 Branch Prediction Accuracy: 97.61% MPKI: 0.3826 Average ROB Occupancy at Mispredict: 246.1
Branch type MPKI
BRANCH_DIRECT_JUMP: 0
BRANCH_INDIRECT: 0
BRANCH_CONDITIONAL: 0.3826
BRANCH_DIRECT_CALL: 0
BRANCH_INDIRECT_CALL: 0
BRANCH_RETURN: 0

cpu0->cpu0_STLB TOTAL        ACCESS:      58518 HIT:      26765 MISS:      31753 MSHR_MERGE:          0
cpu0->cpu0_STLB LOAD         ACCESS:      58518 HIT:      26765 MISS:      31753 MSHR_MERGE:          0
cpu0->cpu0_STLB RFO          ACCESS:          0 HIT:          0 MISS:          0 MSHR_MERGE:          0
cpu0->cpu0_STLB PREFETCH     ACCESS:          0 HIT:          0 MISS:          0 MSHR_MERGE:          0
cpu0->cpu0_STLB WRITE        ACCESS:          0 HIT:          0 MISS:          0 MSHR_MERGE:          0
cpu0->cpu0_STLB TRANSLATION  ACCESS:          0 HIT:          0 MISS:          0 MSHR_MERGE:          0
cpu0->cpu0_STLB PREFETCH REQUESTED:          0 ISSUED:          0 USEFUL:          0 USELESS:          0
cpu0->cpu0_STLB AVERAGE MISS LATENCY: 890.6 cycles
cpu0->cpu0_L2C TOTAL        ACCESS:    6272929 HIT:    4156177 MISS:    2116752 MSHR_MERGE:          0
cpu0->cpu0_L2C LOAD         ACCESS:     507941 HIT:         13 MISS:     507928 MSHR_MERGE:          0
cpu0->cpu0_L2C RFO          ACCESS:    2864590 HIT:    1291519 MISS:    1573071 MSHR_MERGE:          0
cpu0->cpu0_L2C PREFETCH     ACCESS:          0 HIT:          0 MISS:          0 MSHR_MERGE:          0
cpu0->cpu0_L2C WRITE        ACCESS:    2864645 HIT:    2864645 MISS:          0 MSHR_MERGE:          0
cpu0->cpu0_L2C TRANSLATION  ACCESS:      35753 HIT:          0 MISS:      35753 MSHR_MERGE:          0
cpu0->cpu0_L2C PREFETCH REQUESTED:          0 ISSUED:          0 USEFUL:          0 USELESS:          0
cpu0->cpu0_L2C AVERAGE MISS LATENCY: 473.8 cycles
cpu0->cpu0_L1I TOTAL        ACCESS:    8247021 HIT:    8247021 MISS:          0 MSHR_MERGE:          0
cpu0->cpu0_L1I LOAD         ACCESS:    8247021 HIT:    8247021 MISS:          0 MSHR_MERGE:          0
cpu0->cpu0_L1I RFO          ACCESS:          0 HIT:          0 MISS:          0 MSHR_MERGE:          0
cpu0->cpu0_L1I PREFETCH     ACCESS:          0 HIT:          0 MISS:          0 MSHR_MERGE:          0
cpu0->cpu0_L1I WRITE        ACCESS:          0 HIT:          0 MISS:          0 MSHR_MERGE:          0
cpu0->cpu0_L1I TRANSLATION  ACCESS:          0 HIT:          0 MISS:          0 MSHR_MERGE:          0
cpu0->cpu0_L1I PREFETCH REQUESTED:          0 ISSUED:          0 USEFUL:          0 USELESS:          0
cpu0->cpu0_L1I AVERAGE MISS LATENCY: - cycles
cpu0->cpu0_L1D TOTAL        ACCESS:   11841891 HIT:    7646226 MISS:    4195665 MSHR_MERGE:     787322
cpu0->cpu0_L1D LOAD         ACCESS:    3071517 HIT:    1904742 MISS:    1166775 MSHR_MERGE:     658834
cpu0->cpu0_L1D RFO          ACCESS:          0 HIT:          0 MISS:          0 MSHR_MERGE:          0
cpu0->cpu0_L1D PREFETCH     ACCESS:          0 HIT:          0 MISS:          0 MSHR_MERGE:          0
cpu0->cpu0_L1D WRITE        ACCESS:    8706836 HIT:    5713699 MISS:    2993137 MSHR_MERGE:     128488
cpu0->cpu0_L1D TRANSLATION  ACCESS:      63538 HIT:      27785 MISS:      35753 MSHR_MERGE:          0
cpu0->cpu0_L1D PREFETCH REQUESTED:          0 ISSUED:          0 USEFUL:          0 USELESS:          0
cpu0->cpu0_L1D AVERAGE MISS LATENCY: 303.8 cycles
cpu0->cpu0_ITLB TOTAL        ACCESS:    6171021 HIT:    6171021 MISS:          0 MSHR_MERGE:          0
cpu0->cpu0_ITLB LOAD         ACCESS:    6171021 HIT:    6171021 MISS:          0 MSHR_MERGE:          0
cpu0->cpu0_ITLB RFO          ACCESS:          0 HIT:          0 MISS:          0 MSHR_MERGE:          0
cpu0->cpu0_ITLB PREFETCH     ACCESS:          0 HIT:          0 MISS:          0 MSHR_MERGE:          0
cpu0->cpu0_ITLB WRITE        ACCESS:          0 HIT:          0 MISS:          0 MSHR_MERGE:          0
cpu0->cpu0_ITLB TRANSLATION  ACCESS:          0 HIT:          0 MISS:          0 MSHR_MERGE:          0
cpu0->cpu0_ITLB PREFETCH REQUESTED:          0 ISSUED:          0 USEFUL:          0 USELESS:          0
cpu0->cpu0_ITLB AVERAGE MISS LATENCY: - cycles
cpu0->cpu0_DTLB TOTAL        ACCESS:   11064607 HIT:   10898700 MISS:     165907 MSHR_MERGE:     107389
cpu0->cpu0_DTLB LOAD         ACCESS:   11064607 HIT:   10898700 MISS:     165907 MSHR_MERGE:     107389
cpu0->cpu0_DTLB RFO          ACCESS:          0 HIT:          0 MISS:          0 MSHR_MERGE:          0
cpu0->cpu0_DTLB PREFETCH     ACCESS:          0 HIT:          0 MISS:          0 MSHR_MERGE:          0
cpu0->cpu0_DTLB WRITE        ACCESS:          0 HIT:          0 MISS:          0 MSHR_MERGE:          0
cpu0->cpu0_DTLB TRANSLATION  ACCESS:          0 HIT:          0 MISS:          0 MSHR_MERGE:          0
cpu0->cpu0_DTLB PREFETCH REQUESTED:          0 ISSUED:          0 USEFUL:          0 USELESS:          0
cpu0->cpu0_DTLB AVERAGE MISS LATENCY: 488.8 cycles
cpu0->LLC TOTAL        ACCESS:    3689627 HIT:    1622253 MISS:    2067374 MSHR_MERGE:          0
cpu0->LLC LOAD         ACCESS:     507928 HIT:          4 MISS:     507924 MSHR_MERGE:          0
cpu0->LLC RFO          ACCESS:    1573068 HIT:      49371 MISS:    1523697 MSHR_MERGE:          0
cpu0->LLC PREFETCH     ACCESS:          0 HIT:          0 MISS:          0 MSHR_MERGE:          0
cpu0->LLC WRITE        ACCESS:    1572878 HIT:    1572878 MISS:          0 MSHR_MERGE:          0
cpu0->LLC TRANSLATION  ACCESS:      35753 HIT:          0 MISS:      35753 MSHR_MERGE:          0
cpu0->LLC PREFETCH REQUESTED:          0 ISSUED:          0 USEFUL:          0 USELESS:          0
cpu0->LLC AVERAGE MISS LATENCY: 468.7 cycles

DRAM Statistics

Channel 0 RQ ROW_BUFFER_HIT:     102207
  ROW_BUFFER_MISS:    1965167
  AVG DBUS CONGESTED CYCLE: 7.121
Channel 0 WQ ROW_BUFFER_HIT:     249063
  ROW_BUFFER_MISS:    1274616
  FULL:          0
Channel 0 REFRESHES ISSUED:       8372
