[VMEM] WARNING: physical memory size is smaller than virtual memory size.

*** ChampSim Multicore Out-of-Order Simulator ***
Warmup Instructions: 10000000
Simulation Instructions: 50000000
Number of CPUs: 1
Page size: 4096

Off-chip DRAM Size: 16 GiB Channels: 1 Width: 64-bit Data Rate: 3205 MT/s
Heartbeat CPU 0 instructions: 10000000 cycles: 2627408 heartbeat IPC: 3.806 cumulative IPC: 3.806 (Simulation time: 00 hr 00 min 21 sec)
Warmup finished CPU 0 instructions: 10000000 cycles: 2627408 cumulative IPC: 3.806 (Simulation time: 00 hr 00 min 21 sec)
Warmup complete CPU 0 instructions: 10000000 cycles: 2627408 cumulative IPC: 3.806 (Simulation time: 00 hr 00 min 21 sec)
Heartbeat CPU 0 instructions: 20000003 cycles: 16685563 heartbeat IPC: 0.7113 cumulative IPC: 0.7113 (Simulation time: 00 hr 01 min 19 sec)
Heartbeat CPU 0 instructions: 30000004 cycles: 26702334 heartbeat IPC: 0.9983 cumulative IPC: 0.8307 (Simulation time: 00 hr 02 min 00 sec)
Heartbeat CPU 0 instructions: 40000004 cycles: 36278360 heartbeat IPC: 1.044 cumulative IPC: 0.8915 (Simulation time: 00 hr 02 min 40 sec)
Heartbeat CPU 0 instructions: 50000007 cycles: 45756350 heartbeat IPC: 1.055 cumulative IPC: 0.9275 (Simulation time: 00 hr 03 min 19 sec)
Simulation finished CPU 0 instructions: 50000000 cycles: 52709293 cumulative IPC: 0.9486 (Simulation time: 00 hr 03 min 58 sec)
Simulation complete CPU 0 instructions: 50000000 cycles: 52709293 cumulative IPC: 0.9486 (Simulation time: 00 hr 03 min 58 sec)

ChampSim completed all CPUs

=== Simulation ===
CPU 0 runs traces/641.leela_s-149B.champsimtrace.xz

Region of Interest Statistics

CPU 0 cumulative IPC: 0.9486 instructions: 50000000 cycles: 52709293
CPU 0 Branch Prediction Accuracy: 88.24% MPKI: 19.91 Average ROB Occupancy at Mispredict: 20.22
Branch type MPKI
BRANCH_DIRECT_JUMP: 0.1049
BRANCH_INDIRECT: 0.0134
BRANCH_CONDITIONAL: 19.75
BRANCH_DIRECT_CALL: 0.00596
BRANCH_INDIRECT_CALL: 0.0036
BRANCH_RETURN: 0.0321

cpu0->cpu0_STLB TOTAL        ACCESS:      20372 HIT:      19822 MISS:        550 MSHR_MERGE:          0
cpu0->cpu0_STLB LOAD         ACCESS:      20372 HIT:      19822 MISS:        550 MSHR_MERGE:          0
cpu0->cpu0_STLB RFO          ACCESS:          0 HIT:          0 MISS:          0 MSHR_MERGE:          0
cpu0->cpu0_STLB PREFETCH     ACCESS:          0 HIT:          0 MISS:          0 MSHR_MERGE:          0
cpu0->cpu0_STLB WRITE        ACCESS:          0 HIT:          0 MISS:          0 MSHR_MERGE:          0
cpu0->cpu0_STLB TRANSLATION  ACCESS:          0 HIT:          0 MISS:          0 MSHR_MERGE:          0
cpu0->cpu0_STLB PREFETCH REQUESTED:          0 ISSUED:          0 USEFUL:          0 USELESS:          0
cpu0->cpu0_STLB AVERAGE MISS LATENCY: 737.8 cycles
cpu0->cpu0_L2C TOTAL        ACCESS:     308625 HIT:     209212 MISS:      99413 MSHR_MERGE:          0
cpu0->cpu0_L2C LOAD         ACCESS:     137322 HIT:      77663 MISS:      59659 MSHR_MERGE:          0
cpu0->cpu0_L2C RFO          ACCESS:      66590 HIT:      27747 MISS:      38843 MSHR_MERGE:          0
cpu0->cpu0_L2C PREFETCH     ACCESS:          0 HIT:          0 MISS:          0 MSHR_MERGE:          0
cpu0->cpu0_L2C WRITE        ACCESS:     103820 HIT:     103797 MISS:         23 MSHR_MERGE:          0
cpu0->cpu0_L2C TRANSLATION  ACCESS:        893 HIT:          5 MISS:        888 MSHR_MERGE:          0
cpu0->cpu0_L2C PREFETCH REQUESTED:          0 ISSUED:          0 USEFUL:          0 USELESS:          0
cpu0->cpu0_L2C AVERAGE MISS LATENCY: 64.77 cycles
cpu0->cpu0_L1I TOTAL        ACCESS:    5770285 HIT:    5749764 MISS:      20521 MSHR_MERGE:       8028
cpu0->cpu0_L1I LOAD         ACCESS:    5770285 HIT:    5749764 MISS:      20521 MSHR_MERGE:       8028
cpu0->cpu0_L1I RFO          ACCESS:          0 HIT:          0 MISS:          0 MSHR_MERGE:          0
cpu0->cpu0_L1I PREFETCH     ACCESS:          0 HIT:          0 MISS:          0 MSHR_MERGE:          0
cpu0->cpu0_L1I WRITE        ACCESS:          0 HIT:          0 MISS:          0 MSHR_MERGE:          0
cpu0->cpu0_L1I TRANSLATION  ACCESS:          0 HIT:          0 MISS:          0 MSHR_MERGE:          0
cpu0->cpu0_L1I PREFETCH REQUESTED:          0 ISSUED:          0 USEFUL:          0 USELESS:          0
cpu0->cpu0_L1I AVERAGE MISS LATENCY: 20.69 cycles
cpu0->cpu0_L1D TOTAL        ACCESS:   15800556 HIT:   15336353 MISS:     464203 MSHR_MERGE:     271890
cpu0->cpu0_L1D LOAD         ACCESS:    9191922 HIT:    9008620 MISS:     183302 MSHR_MERGE:      58472
cpu0->cpu0_L1D RFO          ACCESS:          0 HIT:          0 MISS:          0 MSHR_MERGE:          0
cpu0->cpu0_L1D PREFETCH     ACCESS:          0 HIT:          0 MISS:          0 MSHR_MERGE:          0
cpu0->cpu0_L1D WRITE        ACCESS:    6607533 HIT:    6327525 MISS:     280008 MSHR_MERGE:     213418
cpu0->cpu0_L1D TRANSLATION  ACCESS:       1101 HIT:        208 MISS:        893 MSHR_MERGE:          0
cpu0->cpu0_L1D PREFETCH REQUESTED:          0 ISSUED:          0 USEFUL:          0 USELESS:          0
cpu0->cpu0_L1D AVERAGE MISS LATENCY: 41.2 cycles
cpu0->cpu0_ITLB TOTAL        ACCESS:    5165259 HIT:    5164639 MISS:        620 MSHR_MERGE:        334
cpu0->cpu0_ITLB LOAD         ACCESS:    5165259 HIT:    5164639 MISS:        620 MSHR_MERGE:        334
cpu0->cpu0_ITLB RFO          ACCESS:          0 HIT:          0 MISS:          0 MSHR_MERGE:          0
cpu0->cpu0_ITLB PREFETCH     ACCESS:          0 HIT:          0 MISS:          0 MSHR_MERGE:          0
cpu0->cpu0_ITLB WRITE        ACCESS:          0 HIT:          0 MISS:          0 MSHR_MERGE:          0
cpu0->cpu0_ITLB TRANSLATION  ACCESS:          0 HIT:          0 MISS:          0 MSHR_MERGE:          0
cpu0->cpu0_ITLB PREFETCH REQUESTED:          0 ISSUED:          0 USEFUL:          0 USELESS:          0
cpu0->cpu0_ITLB AVERAGE MISS LATENCY: 119.9 cycles
cpu0->cpu0_DTLB TOTAL        ACCESS:   14976885 HIT:   14950914 MISS:      25971 MSHR_MERGE:       5885
cpu0->cpu0_DTLB LOAD         ACCESS:   14976885 HIT:   14950914 MISS:      25971 MSHR_MERGE:       5885
cpu0->cpu0_DTLB RFO          ACCESS:          0 HIT:          0 MISS:          0 MSHR_MERGE:          0
cpu0->cpu0_DTLB PREFETCH     ACCESS:          0 HIT:          0 MISS:          0 MSHR_MERGE:          0
cpu0->cpu0_DTLB WRITE        ACCESS:          0 HIT:          0 MISS:          0 MSHR_MERGE:          0
cpu0->cpu0_DTLB TRANSLATION  ACCESS:          0 HIT:          0 MISS:          0 MSHR_MERGE:          0
cpu0->cpu0_DTLB PREFETCH REQUESTED:          0 ISSUED:          0 USEFUL:          0 USELESS:          0
cpu0->cpu0_DTLB AVERAGE MISS LATENCY: 23.6 cycles
cpu0->LLC TOTAL        ACCESS:     161076 HIT:     132725 MISS:      28351 MSHR_MERGE:          0
cpu0->LLC LOAD         ACCESS:      59659 HIT:      40663 MISS:      18996 MSHR_MERGE:          0
cpu0->LLC RFO          ACCESS:      38843 HIT:      30373 MISS:       8470 MSHR_MERGE:          0
cpu0->LLC PREFETCH     ACCESS:          0 HIT:          0 MISS:          0 MSHR_MERGE:          0
cpu0->LLC WRITE        ACCESS:      61686 HIT:      61684 MISS:          2 MSHR_MERGE:          0
cpu0->LLC TRANSLATION  ACCESS:        888 HIT:          5 MISS:        883 MSHR_MERGE:          0
cpu0->LLC PREFETCH REQUESTED:          0 ISSUED:          0 USEFUL:          0 USELESS:          0
cpu0->LLC AVERAGE MISS LATENCY: 173.5 cycles

DRAM Statistics

Channel 0 RQ ROW_BUFFER_HIT:       2617
  ROW_BUFFER_MISS:      25718
  AVG DBUS CONGESTED CYCLE: 13.76
Channel 0 WQ ROW_BUFFER_HIT:        535
  ROW_BUFFER_MISS:       2221
  FULL:          0
Channel 0 REFRESHES ISSUED:       4393
