[VMEM] WARNING: physical memory size is smaller than virtual memory size.

*** ChampSim Multicore Out-of-Order Simulator ***
Warmup Instructions: 10000000
Simulation Instructions: 50000000
Number of CPUs: 1
Page size: 4096

Off-chip DRAM Size: 16 GiB Channels: 1 Width: 64-bit Data Rate: 3205 MT/s
Heartbeat CPU 0 instructions: 10000002 cycles: 6367812 heartbeat IPC: 1.57 cumulative IPC: 1.57 (Simulation time: 00 hr 00 min 47 sec)
Warmup finished CPU 0 instructions: 10000002 cycles: 6367812 cumulative IPC: 1.57 (Simulation time: 00 hr 00 min 47 sec)
Warmup complete CPU 0 instructions: 10000002 cycles: 6367812 cumulative IPC: 1.57 (Simulation time: 00 hr 00 min 47 sec)
Heartbeat CPU 0 instructions: 20000002 cycles: 44675296 heartbeat IPC: 0.261 cumulative IPC: 0.261 (Simulation time: 00 hr 03 min 04 sec)
Heartbeat CPU 0 instructions: 30000004 cycles: 80762449 heartbeat IPC: 0.2771 cumulative IPC: 0.2688 (Simulation time: 00 hr 05 min 13 sec)
Heartbeat CPU 0 instructions: 40000008 cycles: 117652942 heartbeat IPC: 0.2711 cumulative IPC: 0.2696 (Simulation time: 00 hr 07 min 27 sec)
Heartbeat CPU 0 instructions: 50000008 cycles: 153848761 heartbeat IPC: 0.2763 cumulative IPC: 0.2712 (Simulation time: 00 hr 09 min 37 sec)
Simulation finished CPU 0 instructions: 50000004 cycles: 181848535 cumulative IPC: 0.275 (Simulation time: 00 hr 11 min 42 sec)
Simulation complete CPU 0 instructions: 50000004 cycles: 181848535 cumulative IPC: 0.275 (Simulation time: 00 hr 11 min 42 sec)

ChampSim completed all CPUs

=== Simulation ===
CPU 0 runs traces/620.omnetpp_s-141B.champsimtrace.xz

Region of Interest Statistics

CPU 0 cumulative IPC: 0.275 instructions: 50000004 cycles: 181848535
CPU 0 Branch Prediction Accuracy: 92.8% MPKI: 15.15 Average ROB Occupancy at Mispredict: 40.73
Branch type MPKI
BRANCH_DIRECT_JUMP: 0.8368
BRANCH_INDIRECT: 0.3548
BRANCH_CONDITIONAL: 12.65
BRANCH_DIRECT_CALL: 0.00142
BRANCH_INDIRECT_CALL: 0.8572
BRANCH_RETURN: 0.4452

cpu0->cpu0_STLB TOTAL        ACCESS:    1112058 HIT:     867228 MISS:     244830 MSHR_MERGE:          0
cpu0->cpu0_STLB LOAD         ACCESS:    1112058 HIT:     867228 MISS:     244830 MSHR_MERGE:          0
cpu0->cpu0_STLB RFO          ACCESS:          0 HIT:          0 MISS:          0 MSHR_MERGE:          0
cpu0->cpu0_STLB PREFETCH     ACCESS:          0 HIT:          0 MISS:          0 MSHR_MERGE:          0
cpu0->cpu0_STLB WRITE        ACCESS:          0 HIT:          0 MISS:          0 MSHR_MERGE:          0
cpu0->cpu0_STLB TRANSLATION  ACCESS:          0 HIT:          0 MISS:          0 MSHR_MERGE:          0
cpu0->cpu0_STLB PREFETCH REQUESTED:          0 ISSUED:          0 USEFUL:          0 USELESS:          0
cpu0->cpu0_STLB AVERAGE MISS LATENCY: 318.5 cycles
cpu0->cpu0_L2C TOTAL        ACCESS:    2041408 HIT:     723993 MISS:    1317415 MSHR_MERGE:          0
cpu0->cpu0_L2C LOAD         ACCESS:     900950 HIT:     231622 MISS:     669328 MSHR_MERGE:          0
cpu0->cpu0_L2C RFO          ACCESS:     118378 HIT:      30280 MISS:      88098 MSHR_MERGE:          0
cpu0->cpu0_L2C PREFETCH     ACCESS:          0 HIT:          0 MISS:          0 MSHR_MERGE:          0
cpu0->cpu0_L2C WRITE        ACCESS:     478410 HIT:     311903 MISS:     166507 MSHR_MERGE:          0
cpu0->cpu0_L2C TRANSLATION  ACCESS:     543670 HIT:     150188 MISS:     393482 MSHR_MERGE:          0
cpu0->cpu0_L2C PREFETCH REQUESTED:          0 ISSUED:          0 USEFUL:          0 USELESS:          0
cpu0->cpu0_L2C AVERAGE MISS LATENCY: 133.4 cycles
cpu0->cpu0_L1I TOTAL        ACCESS:    6700889 HIT:    6664871 MISS:      36018 MSHR_MERGE:       8510
cpu0->cpu0_L1I LOAD         ACCESS:    6700889 HIT:    6664871 MISS:      36018 MSHR_MERGE:       8510
cpu0->cpu0_L1I RFO          ACCESS:          0 HIT:          0 MISS:          0 MSHR_MERGE:          0
cpu0->cpu0_L1I PREFETCH     ACCESS:          0 HIT:          0 MISS:          0 MSHR_MERGE:          0
cpu0->cpu0_L1I WRITE        ACCESS:          0 HIT:          0 MISS:          0 MSHR_MERGE:          0
cpu0->cpu0_L1I TRANSLATION  ACCESS:          0 HIT:          0 MISS:          0 MSHR_MERGE:          0
cpu0->cpu0_L1I PREFETCH REQUESTED:          0 ISSUED:          0 USEFUL:          0 USELESS:          0
cpu0->cpu0_L1I AVERAGE MISS LATENCY: 16.66 cycles
cpu0->cpu0_L1D TOTAL        ACCESS:   20535867 HIT:   18506739 MISS:    2029128 MSHR_MERGE:     493637
cpu0->cpu0_L1D LOAD         ACCESS:   10880542 HIT:    9756391 MISS:    1124151 MSHR_MERGE:     250708
cpu0->cpu0_L1D RFO          ACCESS:          0 HIT:          0 MISS:          0 MSHR_MERGE:          0
cpu0->cpu0_L1D PREFETCH     ACCESS:          0 HIT:          0 MISS:          0 MSHR_MERGE:          0
cpu0->cpu0_L1D WRITE        ACCESS:    9065951 HIT:    8705990 MISS:     359961 MSHR_MERGE:     241583
cpu0->cpu0_L1D TRANSLATION  ACCESS:     589374 HIT:      44358 MISS:     545016 MSHR_MERGE:       1346
cpu0->cpu0_L1D PREFETCH REQUESTED:          0 ISSUED:          0 USEFUL:          0 USELESS:          0
cpu0->cpu0_L1D AVERAGE MISS LATENCY: 122.6 cycles
cpu0->cpu0_ITLB TOTAL        ACCESS:    5913988 HIT:    5761122 MISS:     152866 MSHR_MERGE:      74397
cpu0->cpu0_ITLB LOAD         ACCESS:    5913988 HIT:    5761122 MISS:     152866 MSHR_MERGE:      74397
cpu0->cpu0_ITLB RFO          ACCESS:          0 HIT:          0 MISS:          0 MSHR_MERGE:          0
cpu0->cpu0_ITLB PREFETCH     ACCESS:          0 HIT:          0 MISS:          0 MSHR_MERGE:          0
cpu0->cpu0_ITLB WRITE        ACCESS:          0 HIT:          0 MISS:          0 MSHR_MERGE:          0
cpu0->cpu0_ITLB TRANSLATION  ACCESS:          0 HIT:          0 MISS:          0 MSHR_MERGE:          0
cpu0->cpu0_ITLB PREFETCH REQUESTED:          0 ISSUED:          0 USEFUL:          0 USELESS:          0
cpu0->cpu0_ITLB AVERAGE MISS LATENCY: 7.551 cycles
cpu0->cpu0_DTLB TOTAL        ACCESS:   18979472 HIT:   17766393 MISS:    1213079 MSHR_MERGE:     179491
cpu0->cpu0_DTLB LOAD         ACCESS:   18979472 HIT:   17766393 MISS:    1213079 MSHR_MERGE:     179491
cpu0->cpu0_DTLB RFO          ACCESS:          0 HIT:          0 MISS:          0 MSHR_MERGE:          0
cpu0->cpu0_DTLB PREFETCH     ACCESS:          0 HIT:          0 MISS:          0 MSHR_MERGE:          0
cpu0->cpu0_DTLB WRITE        ACCESS:          0 HIT:          0 MISS:          0 MSHR_MERGE:          0
cpu0->cpu0_DTLB TRANSLATION  ACCESS:          0 HIT:          0 MISS:          0 MSHR_MERGE:          0
cpu0->cpu0_DTLB PREFETCH REQUESTED:          0 ISSUED:          0 USEFUL:          0 USELESS:          0
cpu0->cpu0_DTLB AVERAGE MISS LATENCY: 80.49 cycles
cpu0->LLC TOTAL        ACCESS:    1503234 HIT:     638701 MISS:     864533 MSHR_MERGE:          0
cpu0->LLC LOAD         ACCESS:     669327 HIT:     183125 MISS:     486202 MSHR_MERGE:          0
cpu0->LLC RFO          ACCESS:      88098 HIT:      29972 MISS:      58126 MSHR_MERGE:          0
cpu0->LLC PREFETCH     ACCESS:          0 HIT:          0 MISS:          0 MSHR_MERGE:          0
cpu0->LLC WRITE        ACCESS:     352327 HIT:     313060 MISS:      39267 MSHR_MERGE:          0
cpu0->LLC TRANSLATION  ACCESS:     393482 HIT:     112544 MISS:     280938 MSHR_MERGE:          0
cpu0->LLC PREFETCH REQUESTED:          0 ISSUED:          0 USEFUL:          0 USELESS:          0
cpu0->LLC AVERAGE MISS LATENCY: 181.9 cycles

DRAM Statistics

Channel 0 RQ ROW_BUFFER_HIT:       2983
  ROW_BUFFER_MISS:     822269
  AVG DBUS CONGESTED CYCLE: 19.8
Channel 0 WQ ROW_BUFFER_HIT:      95943
  ROW_BUFFER_MISS:     172313
  FULL:          0
Channel 0 REFRESHES ISSUED:      15154
