[VMEM] WARNING: physical memory size is smaller than virtual memory size.

*** ChampSim Multicore Out-of-Order Simulator ***
Warmup Instructions: 10000000
Simulation Instructions: 50000000
Number of CPUs: 1
Page size: 4096

Off-chip DRAM Size: 16 GiB Channels: 1 Width: 64-bit Data Rate: 3205 MT/s
Heartbeat CPU 0 instructions: 10000001 cycles: 2965541 heartbeat IPC: 3.372 cumulative IPC: 3.372 (Simulation time: 00 hr 00 min 27 sec)
Warmup finished CPU 0 instructions: 10000001 cycles: 2965541 cumulative IPC: 3.372 (Simulation time: 00 hr 00 min 27 sec)
Warmup complete CPU 0 instructions: 10000001 cycles: 2965541 cumulative IPC: 3.372 (Simulation time: 00 hr 00 min 27 sec)
Heartbeat CPU 0 instructions: 20000002 cycles: 9487149 heartbeat IPC: 1.533 cumulative IPC: 1.533 (Simulation time: 00 hr 01 min 11 sec)
Heartbeat CPU 0 instructions: 30000006 cycles: 15932756 heartbeat IPC: 1.551 cumulative IPC: 1.542 (Simulation time: 00 hr 01 min 55 sec)
Heartbeat CPU 0 instructions: 40000007 cycles: 22343339 heartbeat IPC: 1.56 cumulative IPC: 1.548 (Simulation time: 00 hr 02 min 39 sec)
Heartbeat CPU 0 instructions: 50000007 cycles: 28787576 heartbeat IPC: 1.552 cumulative IPC: 1.549 (Simulation time: 00 hr 03 min 23 sec)
Simulation finished CPU 0 instructions: 50000001 cycles: 35991181 cumulative IPC: 1.389 (Simulation time: 00 hr 04 min 23 sec)
Simulation complete CPU 0 instructions: 50000001 cycles: 35991181 cumulative IPC: 1.389 (Simulation time: 00 hr 04 min 23 sec)

ChampSim completed all CPUs

=== Simulation ===
CPU 0 runs traces/607.cactuBSSN_s-2421B.champsimtrace.xz

Region of Interest Statistics

CPU 0 cumulative IPC: 1.389 instructions: 50000001 cycles: 35991181
CPU 0 Branch Prediction Accuracy: 91.79% MPKI: 0.676 Average ROB Occupancy at Mispredict: 305
Branch type MPKI
BRANCH_DIRECT_JUMP: 0.00124
BRANCH_INDIRECT: 0.00164
BRANCH_CONDITIONAL: 0.3451
BRANCH_DIRECT_CALL: 0.01318
BRANCH_INDIRECT_CALL: 6e-05
BRANCH_RETURN: 0.3147

cpu0->cpu0_STLB TOTAL        ACCESS:    2211547 HIT:    2208488 MISS:       3059 MSHR_MERGE:          0
cpu0->cpu0_STLB LOAD         ACCESS:    2211547 HIT:    2208488 MISS:       3059 MSHR_MERGE:          0
cpu0->cpu0_STLB RFO          ACCESS:          0 HIT:          0 MISS:          0 MSHR_MERGE:          0
cpu0->cpu0_STLB PREFETCH     ACCESS:          0 HIT:          0 MISS:          0 MSHR_MERGE:          0
cpu0->cpu0_STLB WRITE        ACCESS:          0 HIT:          0 MISS:          0 MSHR_MERGE:          0
cpu0->cpu0_STLB TRANSLATION  ACCESS:          0 HIT:          0 MISS:          0 MSHR_MERGE:          0
cpu0->cpu0_STLB PREFETCH REQUESTED:          0 ISSUED:          0 USEFUL:          0 USELESS:          0
cpu0->cpu0_STLB AVERAGE MISS LATENCY: 827.9 cycles
cpu0->cpu0_L2C TOTAL        ACCESS:    5455591 HIT:    3308316 MISS:    2147275 MSHR_MERGE:          0
cpu0->cpu0_L2C LOAD         ACCESS:    4777206 HIT:    2920768 MISS:    1856438 MSHR_MERGE:          0
cpu0->cpu0_L2C RFO          ACCESS:     321632 HIT:     156800 MISS:     164832 MSHR_MERGE:          0
cpu0->cpu0_L2C PREFETCH     ACCESS:          0 HIT:          0 MISS:          0 MSHR_MERGE:          0
cpu0->cpu0_L2C WRITE        ACCESS:     349300 HIT:     230695 MISS:     118605 MSHR_MERGE:          0
cpu0->cpu0_L2C TRANSLATION  ACCESS:       7453 HIT:         53 MISS:       7400 MSHR_MERGE:          0
cpu0->cpu0_L2C PREFETCH REQUESTED:          0 ISSUED:          0 USEFUL:          0 USELESS:          0
cpu0->cpu0_L2C AVERAGE MISS LATENCY: 32.75 cycles
cpu0->cpu0_L1I TOTAL        ACCESS:   11109838 HIT:    8980636 MISS:    2129202 MSHR_MERGE:    1039448
cpu0->cpu0_L1I LOAD         ACCESS:   11109838 HIT:    8980636 MISS:    2129202 MSHR_MERGE:    1039448
cpu0->cpu0_L1I RFO          ACCESS:          0 HIT:          0 MISS:          0 MSHR_MERGE:          0
cpu0->cpu0_L1I PREFETCH     ACCESS:          0 HIT:          0 MISS:          0 MSHR_MERGE:          0
cpu0->cpu0_L1I WRITE        ACCESS:          0 HIT:          0 MISS:          0 MSHR_MERGE:          0
cpu0->cpu0_L1I TRANSLATION  ACCESS:          0 HIT:          0 MISS:          0 MSHR_MERGE:          0
cpu0->cpu0_L1I PREFETCH REQUESTED:          0 ISSUED:          0 USEFUL:          0 USELESS:          0
cpu0->cpu0_L1I AVERAGE MISS LATENCY: 7.296 cycles
cpu0->cpu0_L1D TOTAL        ACCESS:   18802884 HIT:   14264732 MISS:    4538152 MSHR_MERGE:     519924
cpu0->cpu0_L1D LOAD         ACCESS:   14503515 HIT:   10329111 MISS:    4174404 MSHR_MERGE:     485291
cpu0->cpu0_L1D RFO          ACCESS:          0 HIT:          0 MISS:          0 MSHR_MERGE:          0
cpu0->cpu0_L1D PREFETCH     ACCESS:          0 HIT:          0 MISS:          0 MSHR_MERGE:          0
cpu0->cpu0_L1D WRITE        ACCESS:    4291721 HIT:    3935487 MISS:     356234 MSHR_MERGE:      34572
cpu0->cpu0_L1D TRANSLATION  ACCESS:       7648 HIT:        134 MISS:       7514 MSHR_MERGE:         61
cpu0->cpu0_L1D PREFETCH REQUESTED:          0 ISSUED:          0 USEFUL:          0 USELESS:          0
cpu0->cpu0_L1D AVERAGE MISS LATENCY: 26.62 cycles
cpu0->cpu0_ITLB TOTAL        ACCESS:    8926381 HIT:    8926255 MISS:        126 MSHR_MERGE:         66
cpu0->cpu0_ITLB LOAD         ACCESS:    8926381 HIT:    8926255 MISS:        126 MSHR_MERGE:         66
cpu0->cpu0_ITLB RFO          ACCESS:          0 HIT:          0 MISS:          0 MSHR_MERGE:          0
cpu0->cpu0_ITLB PREFETCH     ACCESS:          0 HIT:          0 MISS:          0 MSHR_MERGE:          0
cpu0->cpu0_ITLB WRITE        ACCESS:          0 HIT:          0 MISS:          0 MSHR_MERGE:          0
cpu0->cpu0_ITLB TRANSLATION  ACCESS:          0 HIT:          0 MISS:          0 MSHR_MERGE:          0
cpu0->cpu0_ITLB PREFETCH REQUESTED:          0 ISSUED:          0 USEFUL:          0 USELESS:          0
cpu0->cpu0_ITLB AVERAGE MISS LATENCY: 794.1 cycles
cpu0->cpu0_DTLB TOTAL        ACCESS:   17751353 HIT:   15200006 MISS:    2551347 MSHR_MERGE:     339860
cpu0->cpu0_DTLB LOAD         ACCESS:   17751353 HIT:   15200006 MISS:    2551347 MSHR_MERGE:     339860
cpu0->cpu0_DTLB RFO          ACCESS:          0 HIT:          0 MISS:          0 MSHR_MERGE:          0
cpu0->cpu0_DTLB PREFETCH     ACCESS:          0 HIT:          0 MISS:          0 MSHR_MERGE:          0
cpu0->cpu0_DTLB WRITE        ACCESS:          0 HIT:          0 MISS:          0 MSHR_MERGE:          0
cpu0->cpu0_DTLB TRANSLATION  ACCESS:          0 HIT:          0 MISS:          0 MSHR_MERGE:          0
cpu0->cpu0_DTLB PREFETCH REQUESTED:          0 ISSUED:          0 USEFUL:          0 USELESS:          0
cpu0->cpu0_DTLB AVERAGE MISS LATENCY: 6.163 cycles
cpu0->LLC TOTAL        ACCESS:    2185287 HIT:    2004113 MISS:     181174 MSHR_MERGE:          0
cpu0->LLC LOAD         ACCESS:    1856347 HIT:    1705566 MISS:     150781 MSHR_MERGE:          0
cpu0->LLC RFO          ACCESS:     164329 HIT:     139656 MISS:      24673 MSHR_MERGE:          0
cpu0->LLC PREFETCH     ACCESS:          0 HIT:          0 MISS:          0 MSHR_MERGE:          0
cpu0->LLC WRITE        ACCESS:     157211 HIT:     156391 MISS:        820 MSHR_MERGE:          0
cpu0->LLC TRANSLATION  ACCESS:       7400 HIT:       2500 MISS:       4900 MSHR_MERGE:          0
cpu0->LLC PREFETCH REQUESTED:          0 ISSUED:          0 USEFUL:          0 USELESS:          0
cpu0->LLC AVERAGE MISS LATENCY: 216.3 cycles

DRAM Statistics

Channel 0 RQ ROW_BUFFER_HIT:        120
  ROW_BUFFER_MISS:     180234
  AVG DBUS CONGESTED CYCLE: 9.369
Channel 0 WQ ROW_BUFFER_HIT:       3708
  ROW_BUFFER_MISS:      30103
  FULL:          0
Channel 0 REFRESHES ISSUED:       2999
