[VMEM] WARNING: physical memory size is smaller than virtual memory size.

*** ChampSim Multicore Out-of-Order Simulator ***
Warmup Instructions: 10000000
Simulation Instructions: 50000000
Number of CPUs: 1
Page size: 4096

Off-chip DRAM Size: 16 GiB Channels: 1 Width: 64-bit Data Rate: 3205 MT/s
Heartbeat CPU 0 instructions: 10000000 cycles: 2700693 heartbeat IPC: 3.703 cumulative IPC: 3.703 (Simulation time: 00 hr 00 min 19 sec)
Warmup finished CPU 0 instructions: 10000000 cycles: 2700693 cumulative IPC: 3.703 (Simulation time: 00 hr 00 min 19 sec)
Warmup complete CPU 0 instructions: 10000000 cycles: 2700693 cumulative IPC: 3.703 (Simulation time: 00 hr 00 min 19 sec)
Heartbeat CPU 0 instructions: 20000000 cycles: 16971893 heartbeat IPC: 0.7007 cumulative IPC: 0.7007 (Simulation time: 00 hr 01 min 13 sec)
Heartbeat CPU 0 instructions: 30000001 cycles: 31296923 heartbeat IPC: 0.6981 cumulative IPC: 0.6994 (Simulation time: 00 hr 02 min 08 sec)
Heartbeat CPU 0 instructions: 40000002 cycles: 45797242 heartbeat IPC: 0.6896 cumulative IPC: 0.6961 (Simulation time: 00 hr 03 min 02 sec)
Heartbeat CPU 0 instructions: 50000003 cycles: 60277150 heartbeat IPC: 0.6906 cumulative IPC: 0.6947 (Simulation time: 00 hr 03 min 57 sec)
Simulation finished CPU 0 instructions: 50000000 cycles: 72102713 cumulative IPC: 0.6935 (Simulation time: 00 hr 04 min 52 sec)
Simulation complete CPU 0 instructions: 50000000 cycles: 72102713 cumulative IPC: 0.6935 (Simulation time: 00 hr 04 min 52 sec)

ChampSim completed all CPUs

=== Simulation ===
CPU 0 runs traces/623.xalancbmk_s-165B.champsimtrace.xz

Region of Interest Statistics

CPU 0 cumulative IPC: 0.6935 instructions: 50000000 cycles: 72102713
CPU 0 Branch Prediction Accuracy: 96.52% MPKI: 9.704 Average ROB Occupancy at Mispredict: 59.45
Branch type MPKI
BRANCH_DIRECT_JUMP: 0
BRANCH_INDIRECT: 0
BRANCH_CONDITIONAL: 9.704
BRANCH_DIRECT_CALL: 0
BRANCH_INDIRECT_CALL: 0
BRANCH_RETURN: 0

cpu0->cpu0_STLB TOTAL        ACCESS:      17753 HIT:      17693 MISS:         60 MSHR_MERGE:          0
cpu0->cpu0_STLB LOAD         ACCESS:      17753 HIT:      17693 MISS:         60 MSHR_MERGE:          0
cpu0->cpu0_STLB RFO          ACCESS:          0 HIT:          0 MISS:          0 MSHR_MERGE:          0
cpu0->cpu0_STLB PREFETCH     ACCESS:          0 HIT:          0 MISS:          0 MSHR_MERGE:          0
cpu0->cpu0_STLB WRITE        ACCESS:          0 HIT:          0 MISS:          0 MSHR_MERGE:          0
cpu0->cpu0_STLB TRANSLATION  ACCESS:          0 HIT:          0 MISS:          0 MSHR_MERGE:          0
cpu0->cpu0_STLB PREFETCH REQUESTED:          0 ISSUED:          0 USEFUL:          0 USELESS:          0
cpu0->cpu0_STLB AVERAGE MISS LATENCY: 781.3 cycles
cpu0->cpu0_L2C TOTAL        ACCESS:     951706 HIT:     177004 MISS:     774702 MSHR_MERGE:          0
cpu0->cpu0_L2C LOAD         ACCESS:     950908 HIT:     176693 MISS:     774215 MSHR_MERGE:          0
cpu0->cpu0_L2C RFO          ACCESS:        280 HIT:         38 MISS:        242 MSHR_MERGE:          0
cpu0->cpu0_L2C PREFETCH     ACCESS:          0 HIT:          0 MISS:          0 MSHR_MERGE:          0
cpu0->cpu0_L2C WRITE        ACCESS:        412 HIT:        272 MISS:        140 MSHR_MERGE:          0
cpu0->cpu0_L2C TRANSLATION  ACCESS:        106 HIT:          1 MISS:        105 MSHR_MERGE:          0
cpu0->cpu0_L2C PREFETCH REQUESTED:          0 ISSUED:          0 USEFUL:          0 USELESS:          0
cpu0->cpu0_L2C AVERAGE MISS LATENCY: 84.84 cycles
cpu0->cpu0_L1I TOTAL        ACCESS:       1803 HIT:       1803 MISS:          0 MSHR_MERGE:          0
cpu0->cpu0_L1I LOAD         ACCESS:       1803 HIT:       1803 MISS:          0 MSHR_MERGE:          0
cpu0->cpu0_L1I RFO          ACCESS:          0 HIT:          0 MISS:          0 MSHR_MERGE:          0
cpu0->cpu0_L1I PREFETCH     ACCESS:          0 HIT:          0 MISS:          0 MSHR_MERGE:          0
cpu0->cpu0_L1I WRITE        ACCESS:          0 HIT:          0 MISS:          0 MSHR_MERGE:          0
cpu0->cpu0_L1I TRANSLATION  ACCESS:          0 HIT:          0 MISS:          0 MSHR_MERGE:          0
cpu0->cpu0_L1I PREFETCH REQUESTED:          0 ISSUED:          0 USEFUL:          0 USELESS:          0
cpu0->cpu0_L1I AVERAGE MISS LATENCY: - cycles
cpu0->cpu0_L1D TOTAL        ACCESS:   14056795 HIT:   11015837 MISS:    3040958 MSHR_MERGE:    2089664
cpu0->cpu0_L1D LOAD         ACCESS:   13400433 HIT:   10360949 MISS:    3039484 MSHR_MERGE:    2088576
cpu0->cpu0_L1D RFO          ACCESS:          0 HIT:          0 MISS:          0 MSHR_MERGE:          0
cpu0->cpu0_L1D PREFETCH     ACCESS:          0 HIT:          0 MISS:          0 MSHR_MERGE:          0
cpu0->cpu0_L1D WRITE        ACCESS:     656242 HIT:     654878 MISS:       1364 MSHR_MERGE:       1084
cpu0->cpu0_L1D TRANSLATION  ACCESS:        120 HIT:         10 MISS:        110 MSHR_MERGE:          4
cpu0->cpu0_L1D PREFETCH REQUESTED:          0 ISSUED:          0 USEFUL:          0 USELESS:          0
cpu0->cpu0_L1D AVERAGE MISS LATENCY: 77.91 cycles
cpu0->cpu0_ITLB TOTAL        ACCESS:       1537 HIT:       1537 MISS:          0 MSHR_MERGE:          0
cpu0->cpu0_ITLB LOAD         ACCESS:       1537 HIT:       1537 MISS:          0 MSHR_MERGE:          0
cpu0->cpu0_ITLB RFO          ACCESS:          0 HIT:          0 MISS:          0 MSHR_MERGE:          0
cpu0->cpu0_ITLB PREFETCH     ACCESS:          0 HIT:          0 MISS:          0 MSHR_MERGE:          0
cpu0->cpu0_ITLB WRITE        ACCESS:          0 HIT:          0 MISS:          0 MSHR_MERGE:          0
cpu0->cpu0_ITLB TRANSLATION  ACCESS:          0 HIT:          0 MISS:          0 MSHR_MERGE:          0
cpu0->cpu0_ITLB PREFETCH REQUESTED:          0 ISSUED:          0 USEFUL:          0 USELESS:          0
cpu0->cpu0_ITLB AVERAGE MISS LATENCY: - cycles
cpu0->cpu0_DTLB TOTAL        ACCESS:   13960307 HIT:   13918041 MISS:      42266 MSHR_MERGE:      24513
cpu0->cpu0_DTLB LOAD         ACCESS:   13960307 HIT:   13918041 MISS:      42266 MSHR_MERGE:      24513
cpu0->cpu0_DTLB RFO          ACCESS:          0 HIT:          0 MISS:          0 MSHR_MERGE:          0
cpu0->cpu0_DTLB PREFETCH     ACCESS:          0 HIT:          0 MISS:          0 MSHR_MERGE:          0
cpu0->cpu0_DTLB WRITE        ACCESS:          0 HIT:          0 MISS:          0 MSHR_MERGE:          0
cpu0->cpu0_DTLB TRANSLATION  ACCESS:          0 HIT:          0 MISS:          0 MSHR_MERGE:          0
cpu0->cpu0_DTLB PREFETCH REQUESTED:          0 ISSUED:          0 USEFUL:          0 USELESS:          0
cpu0->cpu0_DTLB AVERAGE MISS LATENCY: 7.644 cycles
cpu0->LLC TOTAL        ACCESS:     774909 HIT:     428212 MISS:     346697 MSHR_MERGE:          0
cpu0->LLC LOAD         ACCESS:     774215 HIT:     427803 MISS:     346412 MSHR_MERGE:          0
cpu0->LLC RFO          ACCESS:        242 HIT:         64 MISS:        178 MSHR_MERGE:          0
cpu0->LLC PREFETCH     ACCESS:          0 HIT:          0 MISS:          0 MSHR_MERGE:          0
cpu0->LLC WRITE        ACCESS:        347 HIT:        340 MISS:          7 MSHR_MERGE:          0
cpu0->LLC TRANSLATION  ACCESS:        105 HIT:          5 MISS:        100 MSHR_MERGE:          0
cpu0->LLC PREFETCH REQUESTED:          0 ISSUED:          0 USEFUL:          0 USELESS:          0
cpu0->LLC AVERAGE MISS LATENCY: 155.1 cycles

DRAM Statistics

Channel 0 RQ ROW_BUFFER_HIT:      78048
  ROW_BUFFER_MISS:     268642
  AVG DBUS CONGESTED CYCLE: 3.101
Channel 0 WQ ROW_BUFFER_HIT:         32
  ROW_BUFFER_MISS:         58
  FULL:          0
Channel 0 REFRESHES ISSUED:       6008
