[VMEM] WARNING: physical memory size is smaller than virtual memory size.

*** ChampSim Multicore Out-of-Order Simulator ***
Warmup Instructions: 10000000
Simulation Instructions: 50000000
Number of CPUs: 1
Page size: 4096

Off-chip DRAM Size: 16 GiB Channels: 1 Width: 64-bit Data Rate: 3205 MT/s
Heartbeat CPU 0 instructions: 10000000 cycles: 3593591 heartbeat IPC: 2.783 cumulative IPC: 2.783 (Simulation time: 00 hr 00 min 28 sec)
Warmup finished CPU 0 instructions: 10000000 cycles: 3593591 cumulative IPC: 2.783 (Simulation time: 00 hr 00 min 28 sec)
Warmup complete CPU 0 instructions: 10000000 cycles: 3593591 cumulative IPC: 2.783 (Simulation time: 00 hr 00 min 28 sec)
Heartbeat CPU 0 instructions: 20000001 cycles: 25143633 heartbeat IPC: 0.464 cumulative IPC: 0.464 (Simulation time: 00 hr 02 min 38 sec)
Heartbeat CPU 0 instructions: 30000003 cycles: 46304571 heartbeat IPC: 0.4726 cumulative IPC: 0.4683 (Simulation time: 00 hr 04 min 46 sec)
Heartbeat CPU 0 instructions: 40000004 cycles: 66590020 heartbeat IPC: 0.493 cumulative IPC: 0.4762 (Simulation time: 00 hr 06 min 49 sec)
Heartbeat CPU 0 instructions: 50000006 cycles: 86149125 heartbeat IPC: 0.5113 cumulative IPC: 0.4845 (Simulation time: 00 hr 08 min 47 sec)
Simulation finished CPU 0 instructions: 50000000 cycles: 101332718 cumulative IPC: 0.4934 (Simulation time: 00 hr 10 min 41 sec)
Simulation complete CPU 0 instructions: 50000000 cycles: 101332718 cumulative IPC: 0.4934 (Simulation time: 00 hr 10 min 41 sec)

ChampSim completed all CPUs

=== Simulation ===
CPU 0 runs traces/619.lbm_s-2676B.champsimtrace.xz

Region of Interest Statistics

CPU 0 cumulative IPC: 0.4934 instructions: 50000000 cycles: 101332718
CPU 0 Branch Prediction Accuracy: 95.94% MPKI: 0.6505 Average ROB Occupancy at Mispredict: 210.4
Branch type MPKI
BRANCH_DIRECT_JUMP: 0
BRANCH_INDIRECT: 0
BRANCH_CONDITIONAL: 0.6505
BRANCH_DIRECT_CALL: 0
BRANCH_INDIRECT_CALL: 0
BRANCH_RETURN: 0

cpu0->cpu0_STLB TOTAL        ACCESS:      58518 HIT:      26765 MISS:      31753 MSHR_MERGE:          0
cpu0->cpu0_STLB LOAD         ACCESS:      58518 HIT:      26765 MISS:      31753 MSHR_MERGE:          0
cpu0->cpu0_STLB RFO          ACCESS:          0 HIT:          0 MISS:          0 MSHR_MERGE:          0
cpu0->cpu0_STLB PREFETCH     ACCESS:          0 HIT:          0 MISS:          0 MSHR_MERGE:          0
cpu0->cpu0_STLB WRITE        ACCESS:          0 HIT:          0 MISS:          0 MSHR_MERGE:          0
cpu0->cpu0_STLB TRANSLATION  ACCESS:          0 HIT:          0 MISS:          0 MSHR_MERGE:          0
cpu0->cpu0_STLB PREFETCH REQUESTED:          0 ISSUED:          0 USEFUL:          0 USELESS:          0
cpu0->cpu0_STLB AVERAGE MISS LATENCY: 850.6 cycles
cpu0->cpu0_L2C TOTAL        ACCESS:    6272834 HIT:     867869 MISS:    5404965 MSHR_MERGE:          0
cpu0->cpu0_L2C LOAD         ACCESS:     507946 HIT:          5 MISS:     507941 MSHR_MERGE:          0
cpu0->cpu0_L2C RFO          ACCESS:    2864534 HIT:      90975 MISS:    2773559 MSHR_MERGE:          0
cpu0->cpu0_L2C PREFETCH     ACCESS:          0 HIT:          0 MISS:          0 MSHR_MERGE:          0
cpu0->cpu0_L2C WRITE        ACCESS:    2864601 HIT:     776889 MISS:    2087712 MSHR_MERGE:          0
cpu0->cpu0_L2C TRANSLATION  ACCESS:      35753 HIT:          0 MISS:      35753 MSHR_MERGE:          0
cpu0->cpu0_L2C PREFETCH REQUESTED:          0 ISSUED:          0 USEFUL:          0 USELESS:          0
cpu0->cpu0_L2C AVERAGE MISS LATENCY: 185.7 cycles
cpu0->cpu0_L1I TOTAL        ACCESS:    8008697 HIT:    8008697 MISS:          0 MSHR_MERGE:          0
cpu0->cpu0_L1I LOAD         ACCESS:    8008697 HIT:    8008697 MISS:          0 MSHR_MERGE:          0
cpu0->cpu0_L1I RFO          ACCESS:          0 HIT:          0 MISS:          0 MSHR_MERGE:          0
cpu0->cpu0_L1I PREFETCH     ACCESS:          0 HIT:          0 MISS:          0 MSHR_MERGE:          0
cpu0->cpu0_L1I WRITE        ACCESS:          0 HIT:          0 MISS:          0 MSHR_MERGE:          0
cpu0->cpu0_L1I TRANSLATION  ACCESS:          0 HIT:          0 MISS:          0 MSHR_MERGE:          0
cpu0->cpu0_L1I PREFETCH REQUESTED:          0 ISSUED:          0 USEFUL:          0 USELESS:          0
cpu0->cpu0_L1I AVERAGE MISS LATENCY: - cycles
cpu0->cpu0_L1D TOTAL        ACCESS:   11918495 HIT:    7680994 MISS:    4237501 MSHR_MERGE:     829200
cpu0->cpu0_L1D LOAD         ACCESS:    3134154 HIT:    1929871 MISS:    1204283 MSHR_MERGE:     696337
cpu0->cpu0_L1D RFO          ACCESS:          0 HIT:          0 MISS:          0 MSHR_MERGE:          0
cpu0->cpu0_L1D PREFETCH     ACCESS:          0 HIT:          0 MISS:          0 MSHR_MERGE:          0
cpu0->cpu0_L1D WRITE        ACCESS:    8720803 HIT:    5723338 MISS:    2997465 MSHR_MERGE:     132863
cpu0->cpu0_L1D TRANSLATION  ACCESS:      63538 HIT:      27785 MISS:      35753 MSHR_MERGE:          0
cpu0->cpu0_L1D PREFETCH REQUESTED:          0 ISSUED:          0 USEFUL:          0 USELESS:          0
cpu0->cpu0_L1D AVERAGE MISS LATENCY: 301.5 cycles
cpu0->cpu0_ITLB TOTAL        ACCESS:    5961561 HIT:    5961561 MISS:          0 MSHR_MERGE:          0
cpu0->cpu0_ITLB LOAD         ACCESS:    5961561 HIT:    5961561 MISS:          0 MSHR_MERGE:          0
cpu0->cpu0_ITLB RFO          ACCESS:          0 HIT:          0 MISS:          0 MSHR_MERGE:          0
cpu0->cpu0_ITLB PREFETCH     ACCESS:          0 HIT:          0 MISS:          0 MSHR_MERGE:          0
cpu0->cpu0_ITLB WRITE        ACCESS:          0 HIT:          0 MISS:          0 MSHR_MERGE:          0
cpu0->cpu0_ITLB TRANSLATION  ACCESS:          0 HIT:          0 MISS:          0 MSHR_MERGE:          0
cpu0->cpu0_ITLB PREFETCH REQUESTED:          0 ISSUED:          0 USEFUL:          0 USELESS:          0
cpu0->cpu0_ITLB AVERAGE MISS LATENCY: - cycles
cpu0->cpu0_DTLB TOTAL        ACCESS:   11144400 HIT:   10979433 MISS:     164967 MSHR_MERGE:     106449
cpu0->cpu0_DTLB LOAD         ACCESS:   11144400 HIT:   10979433 MISS:     164967 MSHR_MERGE:     106449
cpu0->cpu0_DTLB RFO          ACCESS:          0 HIT:          0 MISS:          0 MSHR_MERGE:          0
cpu0->cpu0_DTLB PREFETCH     ACCESS:          0 HIT:          0 MISS:          0 MSHR_MERGE:          0
cpu0->cpu0_DTLB WRITE        ACCESS:          0 HIT:          0 MISS:          0 MSHR_MERGE:          0
cpu0->cpu0_DTLB TRANSLATION  ACCESS:          0 HIT:          0 MISS:          0 MSHR_MERGE:          0
cpu0->cpu0_DTLB PREFETCH REQUESTED:          0 ISSUED:          0 USEFUL:          0 USELESS:          0
cpu0->cpu0_DTLB AVERAGE MISS LATENCY: 467.1 cycles
cpu0->LLC TOTAL        ACCESS:    6090765 HIT:    3982114 MISS:    2108651 MSHR_MERGE:          0
cpu0->LLC LOAD         ACCESS:     507941 HIT:         17 MISS:     507924 MSHR_MERGE:          0
cpu0->LLC RFO          ACCESS:    2773556 HIT:    1256379 MISS:    1517177 MSHR_MERGE:          0
cpu0->LLC PREFETCH     ACCESS:          0 HIT:          0 MISS:          0 MSHR_MERGE:          0
cpu0->LLC WRITE        ACCESS:    2773515 HIT:    2725718 MISS:      47797 MSHR_MERGE:          0
cpu0->LLC TRANSLATION  ACCESS:      35753 HIT:          0 MISS:      35753 MSHR_MERGE:          0
cpu0->LLC PREFETCH REQUESTED:          0 ISSUED:          0 USEFUL:          0 USELESS:          0
cpu0->LLC AVERAGE MISS LATENCY: 447.3 cycles

DRAM Statistics

Channel 0 RQ ROW_BUFFER_HIT:      95884
  ROW_BUFFER_MISS:    1964967
  AVG DBUS CONGESTED CYCLE: 7.102
Channel 0 WQ ROW_BUFFER_HIT:     251241
  ROW_BUFFER_MISS:    1280556
  FULL:          0
Channel 0 REFRESHES ISSUED:       8444
