[VMEM] WARNING: physical memory size is smaller than virtual memory size.

*** ChampSim Multicore Out-of-Order Simulator ***
Warmup Instructions: 10000000
Simulation Instructions: 50000000
Number of CPUs: 1
Page size: 4096

Off-chip DRAM Size: 16 GiB Channels: 1 Width: 64-bit Data Rate: 3205 MT/s
Heartbeat CPU 0 instructions: 10000002 cycles: 6366493 heartbeat IPC: 1.571 cumulative IPC: 1.571 (Simulation time: 00 hr 00 min 48 sec)
Warmup finished CPU 0 instructions: 10000002 cycles: 6366493 cumulative IPC: 1.571 (Simulation time: 00 hr 00 min 48 sec)
Warmup complete CPU 0 instructions: 10000002 cycles: 6366493 cumulative IPC: 1.571 (Simulation time: 00 hr 00 min 48 sec)
Heartbeat CPU 0 instructions: 20000002 cycles: 45263951 heartbeat IPC: 0.2571 cumulative IPC: 0.2571 (Simulation time: 00 hr 03 min 08 sec)
Heartbeat CPU 0 instructions: 30000004 cycles: 81885352 heartbeat IPC: 0.2731 cumulative IPC: 0.2648 (Simulation time: 00 hr 05 min 17 sec)
Heartbeat CPU 0 instructions: 40000008 cycles: 119412674 heartbeat IPC: 0.2665 cumulative IPC: 0.2654 (Simulation time: 00 hr 07 min 31 sec)
Heartbeat CPU 0 instructions: 50000008 cycles: 156178371 heartbeat IPC: 0.272 cumulative IPC: 0.267 (Simulation time: 00 hr 09 min 41 sec)
Simulation finished CPU 0 instructions: 50000004 cycles: 184708834 cumulative IPC: 0.2707 (Simulation time: 00 hr 11 min 45 sec)
Simulation complete CPU 0 instructions: 50000004 cycles: 184708834 cumulative IPC: 0.2707 (Simulation time: 00 hr 11 min 45 sec)

ChampSim completed all CPUs

=== Simulation ===
CPU 0 runs traces/620.omnetpp_s-141B.champsimtrace.xz

Region of Interest Statistics

CPU 0 cumulative IPC: 0.2707 instructions: 50000004 cycles: 184708834
CPU 0 Branch Prediction Accuracy: 92.8% MPKI: 15.15 Average ROB Occupancy at Mispredict: 40.7
Branch type MPKI
BRANCH_DIRECT_JUMP: 0.8368
BRANCH_INDIRECT: 0.3548
BRANCH_CONDITIONAL: 12.65
BRANCH_DIRECT_CALL: 0.00142
BRANCH_INDIRECT_CALL: 0.8572
BRANCH_RETURN: 0.4452

cpu0->cpu0_STLB TOTAL        ACCESS:    1112058 HIT:     867227 MISS:     244831 MSHR_MERGE:          0
cpu0->cpu0_STLB LOAD         ACCESS:    1112058 HIT:     867227 MISS:     244831 MSHR_MERGE:          0
cpu0->cpu0_STLB RFO          ACCESS:          0 HIT:          0 MISS:          0 MSHR_MERGE:          0
cpu0->cpu0_STLB PREFETCH     ACCESS:          0 HIT:          0 MISS:          0 MSHR_MERGE:          0
cpu0->cpu0_STLB WRITE        ACCESS:          0 HIT:          0 MISS:          0 MSHR_MERGE:          0
cpu0->cpu0_STLB TRANSLATION  ACCESS:          0 HIT:          0 MISS:          0 MSHR_MERGE:          0
cpu0->cpu0_STLB PREFETCH REQUESTED:          0 ISSUED:          0 USEFUL:          0 USELESS:          0
cpu0->cpu0_STLB AVERAGE MISS LATENCY: 326 cycles
cpu0->cpu0_L2C TOTAL        ACCESS:    2041322 HIT:     891178 MISS:    1150144 MSHR_MERGE:          0
cpu0->cpu0_L2C LOAD         ACCESS:     900870 HIT:     259523 MISS:     641347 MSHR_MERGE:          0
cpu0->cpu0_L2C RFO          ACCESS:     118423 HIT:      23892 MISS:      94531 MSHR_MERGE:          0
cpu0->cpu0_L2C PREFETCH     ACCESS:          0 HIT:          0 MISS:          0 MSHR_MERGE:          0
cpu0->cpu0_L2C WRITE        ACCESS:     478357 HIT:     477203 MISS:       1154 MSHR_MERGE:          0
cpu0->cpu0_L2C TRANSLATION  ACCESS:     543672 HIT:     130560 MISS:     413112 MSHR_MERGE:          0
cpu0->cpu0_L2C PREFETCH REQUESTED:          0 ISSUED:          0 USEFUL:          0 USELESS:          0
cpu0->cpu0_L2C AVERAGE MISS LATENCY: 155.8 cycles
cpu0->cpu0_L1I TOTAL        ACCESS:    6701256 HIT:    6665206 MISS:      36050 MSHR_MERGE:       8566
cpu0->cpu0_L1I LOAD         ACCESS:    6701256 HIT:    6665206 MISS:      36050 MSHR_MERGE:       8566
cpu0->cpu0_L1I RFO          ACCESS:          0 HIT:          0 MISS:          0 MSHR_MERGE:          0
cpu0->cpu0_L1I PREFETCH     ACCESS:          0 HIT:          0 MISS:          0 MSHR_MERGE:          0
cpu0->cpu0_L1I WRITE        ACCESS:          0 HIT:          0 MISS:          0 MSHR_MERGE:          0
cpu0->cpu0_L1I TRANSLATION  ACCESS:          0 HIT:          0 MISS:          0 MSHR_MERGE:          0
cpu0->cpu0_L1I PREFETCH REQUESTED:          0 ISSUED:          0 USEFUL:          0 USELESS:          0
cpu0->cpu0_L1I AVERAGE MISS LATENCY: 23.05 cycles
cpu0->cpu0_L1D TOTAL        ACCESS:   20534665 HIT:   18493383 MISS:    2041282 MSHR_MERGE:     505800
cpu0->cpu0_L1D LOAD         ACCESS:   10878588 HIT:    9754744 MISS:    1123844 MSHR_MERGE:     250457
cpu0->cpu0_L1D RFO          ACCESS:          0 HIT:          0 MISS:          0 MSHR_MERGE:          0
cpu0->cpu0_L1D PREFETCH     ACCESS:          0 HIT:          0 MISS:          0 MSHR_MERGE:          0
cpu0->cpu0_L1D WRITE        ACCESS:    9066673 HIT:    8694300 MISS:     372373 MSHR_MERGE:     253950
cpu0->cpu0_L1D TRANSLATION  ACCESS:     589404 HIT:      44339 MISS:     545065 MSHR_MERGE:       1393
cpu0->cpu0_L1D PREFETCH REQUESTED:          0 ISSUED:          0 USEFUL:          0 USELESS:          0
cpu0->cpu0_L1D AVERAGE MISS LATENCY: 125.2 cycles
cpu0->cpu0_ITLB TOTAL        ACCESS:    5914559 HIT:    5761876 MISS:     152683 MSHR_MERGE:      74214
cpu0->cpu0_ITLB LOAD         ACCESS:    5914559 HIT:    5761876 MISS:     152683 MSHR_MERGE:      74214
cpu0->cpu0_ITLB RFO          ACCESS:          0 HIT:          0 MISS:          0 MSHR_MERGE:          0
cpu0->cpu0_ITLB PREFETCH     ACCESS:          0 HIT:          0 MISS:          0 MSHR_MERGE:          0
cpu0->cpu0_ITLB WRITE        ACCESS:          0 HIT:          0 MISS:          0 MSHR_MERGE:          0
cpu0->cpu0_ITLB TRANSLATION  ACCESS:          0 HIT:          0 MISS:          0 MSHR_MERGE:          0
cpu0->cpu0_ITLB PREFETCH REQUESTED:          0 ISSUED:          0 USEFUL:          0 USELESS:          0
cpu0->cpu0_ITLB AVERAGE MISS LATENCY: 7.799 cycles
cpu0->cpu0_DTLB TOTAL        ACCESS:   18973559 HIT:   17760540 MISS:    1213019 MSHR_MERGE:     179430
cpu0->cpu0_DTLB LOAD         ACCESS:   18973559 HIT:   17760540 MISS:    1213019 MSHR_MERGE:     179430
cpu0->cpu0_DTLB RFO          ACCESS:          0 HIT:          0 MISS:          0 MSHR_MERGE:          0
cpu0->cpu0_DTLB PREFETCH     ACCESS:          0 HIT:          0 MISS:          0 MSHR_MERGE:          0
cpu0->cpu0_DTLB WRITE        ACCESS:          0 HIT:          0 MISS:          0 MSHR_MERGE:          0
cpu0->cpu0_DTLB TRANSLATION  ACCESS:          0 HIT:          0 MISS:          0 MSHR_MERGE:          0
cpu0->cpu0_DTLB PREFETCH REQUESTED:          0 ISSUED:          0 USEFUL:          0 USELESS:          0
cpu0->cpu0_DTLB AVERAGE MISS LATENCY: 82.24 cycles
cpu0->LLC TOTAL        ACCESS:    1512147 HIT:     663757 MISS:     848390 MSHR_MERGE:          0
cpu0->LLC LOAD         ACCESS:     641346 HIT:     143825 MISS:     497521 MSHR_MERGE:          0
cpu0->LLC RFO          ACCESS:      94530 HIT:      34007 MISS:      60523 MSHR_MERGE:          0
cpu0->LLC PREFETCH     ACCESS:          0 HIT:          0 MISS:          0 MSHR_MERGE:          0
cpu0->LLC WRITE        ACCESS:     363159 HIT:     361685 MISS:       1474 MSHR_MERGE:          0
cpu0->LLC TRANSLATION  ACCESS:     413112 HIT:     124240 MISS:     288872 MSHR_MERGE:          0
cpu0->LLC PREFETCH REQUESTED:          0 ISSUED:          0 USEFUL:          0 USELESS:          0
cpu0->LLC AVERAGE MISS LATENCY: 190 cycles

DRAM Statistics

Channel 0 RQ ROW_BUFFER_HIT:       3023
  ROW_BUFFER_MISS:     843874
  AVG DBUS CONGESTED CYCLE: 19.8
Channel 0 WQ ROW_BUFFER_HIT:      95845
  ROW_BUFFER_MISS:     169769
  FULL:          0
Channel 0 REFRESHES ISSUED:      15392
