[VMEM] WARNING: physical memory size is smaller than virtual memory size.

*** ChampSim Multicore Out-of-Order Simulator ***
Warmup Instructions: 10000000
Simulation Instructions: 50000000
Number of CPUs: 1
Page size: 4096

Off-chip DRAM Size: 16 GiB Channels: 1 Width: 64-bit Data Rate: 3205 MT/s
Heartbeat CPU 0 instructions: 10000000 cycles: 2627408 heartbeat IPC: 3.806 cumulative IPC: 3.806 (Simulation time: 00 hr 00 min 21 sec)
Warmup finished CPU 0 instructions: 10000000 cycles: 2627408 cumulative IPC: 3.806 (Simulation time: 00 hr 00 min 21 sec)
Warmup complete CPU 0 instructions: 10000000 cycles: 2627408 cumulative IPC: 3.806 (Simulation time: 00 hr 00 min 21 sec)
Heartbeat CPU 0 instructions: 20000003 cycles: 16525632 heartbeat IPC: 0.7195 cumulative IPC: 0.7195 (Simulation time: 00 hr 01 min 19 sec)
Heartbeat CPU 0 instructions: 30000004 cycles: 26514491 heartbeat IPC: 1.001 cumulative IPC: 0.8373 (Simulation time: 00 hr 02 min 00 sec)
Heartbeat CPU 0 instructions: 40000004 cycles: 36082634 heartbeat IPC: 1.045 cumulative IPC: 0.8967 (Simulation time: 00 hr 02 min 40 sec)
Heartbeat CPU 0 instructions: 50000007 cycles: 45564362 heartbeat IPC: 1.055 cumulative IPC: 0.9316 (Simulation time: 00 hr 03 min 20 sec)
Simulation finished CPU 0 instructions: 50000000 cycles: 52517185 cumulative IPC: 0.9521 (Simulation time: 00 hr 03 min 59 sec)
Simulation complete CPU 0 instructions: 50000000 cycles: 52517185 cumulative IPC: 0.9521 (Simulation time: 00 hr 03 min 59 sec)

ChampSim completed all CPUs

=== Simulation ===
CPU 0 runs traces/641.leela_s-149B.champsimtrace.xz

Region of Interest Statistics

CPU 0 cumulative IPC: 0.9521 instructions: 50000000 cycles: 52517185
CPU 0 Branch Prediction Accuracy: 88.24% MPKI: 19.91 Average ROB Occupancy at Mispredict: 20.22
Branch type MPKI
BRANCH_DIRECT_JUMP: 0.1049
BRANCH_INDIRECT: 0.0134
BRANCH_CONDITIONAL: 19.75
BRANCH_DIRECT_CALL: 0.00596
BRANCH_INDIRECT_CALL: 0.0036
BRANCH_RETURN: 0.0321

cpu0->cpu0_STLB TOTAL        ACCESS:      20373 HIT:      19823 MISS:        550 MSHR_MERGE:          0
cpu0->cpu0_STLB LOAD         ACCESS:      20373 HIT:      19823 MISS:        550 MSHR_MERGE:          0
cpu0->cpu0_STLB RFO          ACCESS:          0 HIT:          0 MISS:          0 MSHR_MERGE:          0
cpu0->cpu0_STLB PREFETCH     ACCESS:          0 HIT:          0 MISS:          0 MSHR_MERGE:          0
cpu0->cpu0_STLB WRITE        ACCESS:          0 HIT:          0 MISS:          0 MSHR_MERGE:          0
cpu0->cpu0_STLB TRANSLATION  ACCESS:          0 HIT:          0 MISS:          0 MSHR_MERGE:          0
cpu0->cpu0_STLB PREFETCH REQUESTED:          0 ISSUED:          0 USEFUL:          0 USELESS:          0
cpu0->cpu0_STLB AVERAGE MISS LATENCY: 741.2 cycles
cpu0->cpu0_L2C TOTAL        ACCESS:     308634 HIT:     180246 MISS:     128388 MSHR_MERGE:          0
cpu0->cpu0_L2C LOAD         ACCESS:     137337 HIT:      81937 MISS:      55400 MSHR_MERGE:          0
cpu0->cpu0_L2C RFO          ACCESS:      66573 HIT:      31820 MISS:      34753 MSHR_MERGE:          0
cpu0->cpu0_L2C PREFETCH     ACCESS:          0 HIT:          0 MISS:          0 MSHR_MERGE:          0
cpu0->cpu0_L2C WRITE        ACCESS:     103831 HIT:      66481 MISS:      37350 MSHR_MERGE:          0
cpu0->cpu0_L2C TRANSLATION  ACCESS:        893 HIT:          8 MISS:        885 MSHR_MERGE:          0
cpu0->cpu0_L2C PREFETCH REQUESTED:          0 ISSUED:          0 USEFUL:          0 USELESS:          0
cpu0->cpu0_L2C AVERAGE MISS LATENCY: 47.84 cycles
cpu0->cpu0_L1I TOTAL        ACCESS:    5770526 HIT:    5750097 MISS:      20429 MSHR_MERGE:       7938
cpu0->cpu0_L1I LOAD         ACCESS:    5770526 HIT:    5750097 MISS:      20429 MSHR_MERGE:       7938
cpu0->cpu0_L1I RFO          ACCESS:          0 HIT:          0 MISS:          0 MSHR_MERGE:          0
cpu0->cpu0_L1I PREFETCH     ACCESS:          0 HIT:          0 MISS:          0 MSHR_MERGE:          0
cpu0->cpu0_L1I WRITE        ACCESS:          0 HIT:          0 MISS:          0 MSHR_MERGE:          0
cpu0->cpu0_L1I TRANSLATION  ACCESS:          0 HIT:          0 MISS:          0 MSHR_MERGE:          0
cpu0->cpu0_L1I PREFETCH REQUESTED:          0 ISSUED:          0 USEFUL:          0 USELESS:          0
cpu0->cpu0_L1I AVERAGE MISS LATENCY: 19.44 cycles
cpu0->cpu0_L1D TOTAL        ACCESS:   15801004 HIT:   15343219 MISS:     457785 MSHR_MERGE:     265472
cpu0->cpu0_L1D LOAD         ACCESS:    9192345 HIT:    9003334 MISS:     189011 MSHR_MERGE:      64164
cpu0->cpu0_L1D RFO          ACCESS:          0 HIT:          0 MISS:          0 MSHR_MERGE:          0
cpu0->cpu0_L1D PREFETCH     ACCESS:          0 HIT:          0 MISS:          0 MSHR_MERGE:          0
cpu0->cpu0_L1D WRITE        ACCESS:    6607558 HIT:    6339677 MISS:     267881 MSHR_MERGE:     201308
cpu0->cpu0_L1D TRANSLATION  ACCESS:       1101 HIT:        208 MISS:        893 MSHR_MERGE:          0
cpu0->cpu0_L1D PREFETCH REQUESTED:          0 ISSUED:          0 USEFUL:          0 USELESS:          0
cpu0->cpu0_L1D AVERAGE MISS LATENCY: 38.91 cycles
cpu0->cpu0_ITLB TOTAL        ACCESS:    5165941 HIT:    5165314 MISS:        627 MSHR_MERGE:        341
cpu0->cpu0_ITLB LOAD         ACCESS:    5165941 HIT:    5165314 MISS:        627 MSHR_MERGE:        341
cpu0->cpu0_ITLB RFO          ACCESS:          0 HIT:          0 MISS:          0 MSHR_MERGE:          0
cpu0->cpu0_ITLB PREFETCH     ACCESS:          0 HIT:          0 MISS:          0 MSHR_MERGE:          0
cpu0->cpu0_ITLB WRITE        ACCESS:          0 HIT:          0 MISS:          0 MSHR_MERGE:          0
cpu0->cpu0_ITLB TRANSLATION  ACCESS:          0 HIT:          0 MISS:          0 MSHR_MERGE:          0
cpu0->cpu0_ITLB PREFETCH REQUESTED:          0 ISSUED:          0 USEFUL:          0 USELESS:          0
cpu0->cpu0_ITLB AVERAGE MISS LATENCY: 121.1 cycles
cpu0->cpu0_DTLB TOTAL        ACCESS:   14976659 HIT:   14950677 MISS:      25982 MSHR_MERGE:       5895
cpu0->cpu0_DTLB LOAD         ACCESS:   14976659 HIT:   14950677 MISS:      25982 MSHR_MERGE:       5895
cpu0->cpu0_DTLB RFO          ACCESS:          0 HIT:          0 MISS:          0 MSHR_MERGE:          0
cpu0->cpu0_DTLB PREFETCH     ACCESS:          0 HIT:          0 MISS:          0 MSHR_MERGE:          0
cpu0->cpu0_DTLB WRITE        ACCESS:          0 HIT:          0 MISS:          0 MSHR_MERGE:          0
cpu0->cpu0_DTLB TRANSLATION  ACCESS:          0 HIT:          0 MISS:          0 MSHR_MERGE:          0
cpu0->cpu0_DTLB PREFETCH REQUESTED:          0 ISSUED:          0 USEFUL:          0 USELESS:          0
cpu0->cpu0_DTLB AVERAGE MISS LATENCY: 23.67 cycles
cpu0->LLC TOTAL        ACCESS:     149007 HIT:     121578 MISS:      27429 MSHR_MERGE:          0
cpu0->LLC LOAD         ACCESS:      55400 HIT:      36928 MISS:      18472 MSHR_MERGE:          0
cpu0->LLC RFO          ACCESS:      34753 HIT:      27101 MISS:       7652 MSHR_MERGE:          0
cpu0->LLC PREFETCH     ACCESS:          0 HIT:          0 MISS:          0 MSHR_MERGE:          0
cpu0->LLC WRITE        ACCESS:      57969 HIT:      57547 MISS:        422 MSHR_MERGE:          0
cpu0->LLC TRANSLATION  ACCESS:        885 HIT:          2 MISS:        883 MSHR_MERGE:          0
cpu0->LLC PREFETCH REQUESTED:          0 ISSUED:          0 USEFUL:          0 USELESS:          0
cpu0->LLC AVERAGE MISS LATENCY: 167.8 cycles

DRAM Statistics

Channel 0 RQ ROW_BUFFER_HIT:       2665
  ROW_BUFFER_MISS:      24342
  AVG DBUS CONGESTED CYCLE: 16.37
Channel 0 WQ ROW_BUFFER_HIT:        167
  ROW_BUFFER_MISS:       1234
  FULL:          0
Channel 0 REFRESHES ISSUED:       4377
