[VMEM] WARNING: physical memory size is smaller than virtual memory size.

*** ChampSim Multicore Out-of-Order Simulator ***
Warmup Instructions: 10000000
Simulation Instructions: 50000000
Number of CPUs: 1
Page size: 4096

Off-chip DRAM Size: 16 GiB Channels: 1 Width: 64-bit Data Rate: 3205 MT/s
Heartbeat CPU 0 instructions: 10000000 cycles: 2627408 heartbeat IPC: 3.806 cumulative IPC: 3.806 (Simulation time: 00 hr 00 min 22 sec)
Warmup finished CPU 0 instructions: 10000000 cycles: 2627408 cumulative IPC: 3.806 (Simulation time: 00 hr 00 min 22 sec)
Warmup complete CPU 0 instructions: 10000000 cycles: 2627408 cumulative IPC: 3.806 (Simulation time: 00 hr 00 min 22 sec)
Heartbeat CPU 0 instructions: 20000003 cycles: 16506181 heartbeat IPC: 0.7205 cumulative IPC: 0.7205 (Simulation time: 00 hr 01 min 22 sec)
Heartbeat CPU 0 instructions: 30000004 cycles: 26427991 heartbeat IPC: 1.008 cumulative IPC: 0.8403 (Simulation time: 00 hr 02 min 05 sec)
Heartbeat CPU 0 instructions: 40000004 cycles: 35987925 heartbeat IPC: 1.046 cumulative IPC: 0.8993 (Simulation time: 00 hr 02 min 47 sec)
Heartbeat CPU 0 instructions: 50000007 cycles: 45464611 heartbeat IPC: 1.055 cumulative IPC: 0.9338 (Simulation time: 00 hr 03 min 28 sec)
Simulation finished CPU 0 instructions: 50000000 cycles: 52417998 cumulative IPC: 0.9539 (Simulation time: 00 hr 04 min 10 sec)
Simulation complete CPU 0 instructions: 50000000 cycles: 52417998 cumulative IPC: 0.9539 (Simulation time: 00 hr 04 min 10 sec)

ChampSim completed all CPUs

=== Simulation ===
CPU 0 runs traces/641.leela_s-149B.champsimtrace.xz

Region of Interest Statistics

CPU 0 cumulative IPC: 0.9539 instructions: 50000000 cycles: 52417998
CPU 0 Branch Prediction Accuracy: 88.24% MPKI: 19.91 Average ROB Occupancy at Mispredict: 20.21
Branch type MPKI
BRANCH_DIRECT_JUMP: 0.1049
BRANCH_INDIRECT: 0.0134
BRANCH_CONDITIONAL: 19.75
BRANCH_DIRECT_CALL: 0.00596
BRANCH_INDIRECT_CALL: 0.0036
BRANCH_RETURN: 0.0321

cpu0->cpu0_STLB TOTAL        ACCESS:      20372 HIT:      19822 MISS:        550 MSHR_MERGE:          0
cpu0->cpu0_STLB LOAD         ACCESS:      20372 HIT:      19822 MISS:        550 MSHR_MERGE:          0
cpu0->cpu0_STLB RFO          ACCESS:          0 HIT:          0 MISS:          0 MSHR_MERGE:          0
cpu0->cpu0_STLB PREFETCH     ACCESS:          0 HIT:          0 MISS:          0 MSHR_MERGE:          0
cpu0->cpu0_STLB WRITE        ACCESS:          0 HIT:          0 MISS:          0 MSHR_MERGE:          0
cpu0->cpu0_STLB TRANSLATION  ACCESS:          0 HIT:          0 MISS:          0 MSHR_MERGE:          0
cpu0->cpu0_STLB PREFETCH REQUESTED:          0 ISSUED:          0 USEFUL:          0 USELESS:          0
cpu0->cpu0_STLB AVERAGE MISS LATENCY: 740.4 cycles
cpu0->cpu0_L2C TOTAL        ACCESS:     308636 HIT:     168061 MISS:     140575 MSHR_MERGE:          0
cpu0->cpu0_L2C LOAD         ACCESS:     137310 HIT:      82036 MISS:      55274 MSHR_MERGE:          0
cpu0->cpu0_L2C RFO          ACCESS:      66599 HIT:      27067 MISS:      39532 MSHR_MERGE:          0
cpu0->cpu0_L2C PREFETCH     ACCESS:          0 HIT:          0 MISS:          0 MSHR_MERGE:          0
cpu0->cpu0_L2C WRITE        ACCESS:     103834 HIT:      58951 MISS:      44883 MSHR_MERGE:          0
cpu0->cpu0_L2C TRANSLATION  ACCESS:        893 HIT:          7 MISS:        886 MSHR_MERGE:          0
cpu0->cpu0_L2C PREFETCH REQUESTED:          0 ISSUED:          0 USEFUL:          0 USELESS:          0
cpu0->cpu0_L2C AVERAGE MISS LATENCY: 43.46 cycles
cpu0->cpu0_L1I TOTAL        ACCESS:    5769957 HIT:    5749566 MISS:      20391 MSHR_MERGE:       7901
cpu0->cpu0_L1I LOAD         ACCESS:    5769957 HIT:    5749566 MISS:      20391 MSHR_MERGE:       7901
cpu0->cpu0_L1I RFO          ACCESS:          0 HIT:          0 MISS:          0 MSHR_MERGE:          0
cpu0->cpu0_L1I PREFETCH     ACCESS:          0 HIT:          0 MISS:          0 MSHR_MERGE:          0
cpu0->cpu0_L1I WRITE        ACCESS:          0 HIT:          0 MISS:          0 MSHR_MERGE:          0
cpu0->cpu0_L1I TRANSLATION  ACCESS:          0 HIT:          0 MISS:          0 MSHR_MERGE:          0
cpu0->cpu0_L1I PREFETCH REQUESTED:          0 ISSUED:          0 USEFUL:          0 USELESS:          0
cpu0->cpu0_L1I AVERAGE MISS LATENCY: 18.22 cycles
cpu0->cpu0_L1D TOTAL        ACCESS:   15801474 HIT:   15329315 MISS:     472159 MSHR_MERGE:     279846
cpu0->cpu0_L1D LOAD         ACCESS:    9192832 HIT:    9003525 MISS:     189307 MSHR_MERGE:      64486
cpu0->cpu0_L1D RFO          ACCESS:          0 HIT:          0 MISS:          0 MSHR_MERGE:          0
cpu0->cpu0_L1D PREFETCH     ACCESS:          0 HIT:          0 MISS:          0 MSHR_MERGE:          0
cpu0->cpu0_L1D WRITE        ACCESS:    6607541 HIT:    6325582 MISS:     281959 MSHR_MERGE:     215360
cpu0->cpu0_L1D TRANSLATION  ACCESS:       1101 HIT:        208 MISS:        893 MSHR_MERGE:          0
cpu0->cpu0_L1D PREFETCH REQUESTED:          0 ISSUED:          0 USEFUL:          0 USELESS:          0
cpu0->cpu0_L1D AVERAGE MISS LATENCY: 38.7 cycles
cpu0->cpu0_ITLB TOTAL        ACCESS:    5165472 HIT:    5164846 MISS:        626 MSHR_MERGE:        340
cpu0->cpu0_ITLB LOAD         ACCESS:    5165472 HIT:    5164846 MISS:        626 MSHR_MERGE:        340
cpu0->cpu0_ITLB RFO          ACCESS:          0 HIT:          0 MISS:          0 MSHR_MERGE:          0
cpu0->cpu0_ITLB PREFETCH     ACCESS:          0 HIT:          0 MISS:          0 MSHR_MERGE:          0
cpu0->cpu0_ITLB WRITE        ACCESS:          0 HIT:          0 MISS:          0 MSHR_MERGE:          0
cpu0->cpu0_ITLB TRANSLATION  ACCESS:          0 HIT:          0 MISS:          0 MSHR_MERGE:          0
cpu0->cpu0_ITLB PREFETCH REQUESTED:          0 ISSUED:          0 USEFUL:          0 USELESS:          0
cpu0->cpu0_ITLB AVERAGE MISS LATENCY: 119.7 cycles
cpu0->cpu0_DTLB TOTAL        ACCESS:   14977074 HIT:   14951098 MISS:      25976 MSHR_MERGE:       5890
cpu0->cpu0_DTLB LOAD         ACCESS:   14977074 HIT:   14951098 MISS:      25976 MSHR_MERGE:       5890
cpu0->cpu0_DTLB RFO          ACCESS:          0 HIT:          0 MISS:          0 MSHR_MERGE:          0
cpu0->cpu0_DTLB PREFETCH     ACCESS:          0 HIT:          0 MISS:          0 MSHR_MERGE:          0
cpu0->cpu0_DTLB WRITE        ACCESS:          0 HIT:          0 MISS:          0 MSHR_MERGE:          0
cpu0->cpu0_DTLB TRANSLATION  ACCESS:          0 HIT:          0 MISS:          0 MSHR_MERGE:          0
cpu0->cpu0_DTLB PREFETCH REQUESTED:          0 ISSUED:          0 USEFUL:          0 USELESS:          0
cpu0->cpu0_DTLB AVERAGE MISS LATENCY: 23.67 cycles
cpu0->LLC TOTAL        ACCESS:     159096 HIT:     132666 MISS:      26430 MSHR_MERGE:          0
cpu0->LLC LOAD         ACCESS:      55274 HIT:      37328 MISS:      17946 MSHR_MERGE:          0
cpu0->LLC RFO          ACCESS:      39532 HIT:      31997 MISS:       7535 MSHR_MERGE:          0
cpu0->LLC PREFETCH     ACCESS:          0 HIT:          0 MISS:          0 MSHR_MERGE:          0
cpu0->LLC WRITE        ACCESS:      63404 HIT:      63338 MISS:         66 MSHR_MERGE:          0
cpu0->LLC TRANSLATION  ACCESS:        886 HIT:          3 MISS:        883 MSHR_MERGE:          0
cpu0->LLC PREFETCH REQUESTED:          0 ISSUED:          0 USEFUL:          0 USELESS:          0
cpu0->LLC AVERAGE MISS LATENCY: 169.1 cycles

DRAM Statistics

Channel 0 RQ ROW_BUFFER_HIT:       2682
  ROW_BUFFER_MISS:      23682
  AVG DBUS CONGESTED CYCLE: 14.26
Channel 0 WQ ROW_BUFFER_HIT:         79
  ROW_BUFFER_MISS:        524
  FULL:          0
Channel 0 REFRESHES ISSUED:       4369
