[VMEM] WARNING: physical memory size is smaller than virtual memory size.

*** ChampSim Multicore Out-of-Order Simulator ***
Warmup Instructions: 10000000
Simulation Instructions: 50000000
Number of CPUs: 1
Page size: 4096

Off-chip DRAM Size: 16 GiB Channels: 1 Width: 64-bit Data Rate: 3205 MT/s
Heartbeat CPU 0 instructions: 10000001 cycles: 4023529 heartbeat IPC: 2.485 cumulative IPC: 2.485 (Simulation time: 00 hr 00 min 31 sec)
Warmup finished CPU 0 instructions: 10000001 cycles: 4023529 cumulative IPC: 2.485 (Simulation time: 00 hr 00 min 31 sec)
Warmup complete CPU 0 instructions: 10000001 cycles: 4023529 cumulative IPC: 2.485 (Simulation time: 00 hr 00 min 31 sec)
Heartbeat CPU 0 instructions: 20000002 cycles: 45483440 heartbeat IPC: 0.2412 cumulative IPC: 0.2412 (Simulation time: 00 hr 04 min 13 sec)
Heartbeat CPU 0 instructions: 30000002 cycles: 86707475 heartbeat IPC: 0.2426 cumulative IPC: 0.2419 (Simulation time: 00 hr 07 min 55 sec)
Heartbeat CPU 0 instructions: 40000003 cycles: 128925077 heartbeat IPC: 0.2369 cumulative IPC: 0.2402 (Simulation time: 00 hr 11 min 41 sec)
Heartbeat CPU 0 instructions: 50000006 cycles: 170218941 heartbeat IPC: 0.2422 cumulative IPC: 0.2407 (Simulation time: 00 hr 15 min 23 sec)
Simulation finished CPU 0 instructions: 50000002 cycles: 207538520 cumulative IPC: 0.2409 (Simulation time: 00 hr 19 min 06 sec)
Simulation complete CPU 0 instructions: 50000002 cycles: 207538520 cumulative IPC: 0.2409 (Simulation time: 00 hr 19 min 06 sec)

ChampSim completed all CPUs

=== Simulation ===
CPU 0 runs traces/605.mcf_s-1536B.champsimtrace.xz

Region of Interest Statistics

CPU 0 cumulative IPC: 0.2409 instructions: 50000002 cycles: 207538520
CPU 0 Branch Prediction Accuracy: 99.97% MPKI: 0.04406 Average ROB Occupancy at Mispredict: 176.1
Branch type MPKI
BRANCH_DIRECT_JUMP: 0
BRANCH_INDIRECT: 0
BRANCH_CONDITIONAL: 0.04406
BRANCH_DIRECT_CALL: 0
BRANCH_INDIRECT_CALL: 0
BRANCH_RETURN: 0

cpu0->cpu0_STLB TOTAL        ACCESS:    1310337 HIT:     188906 MISS:    1121431 MSHR_MERGE:          0
cpu0->cpu0_STLB LOAD         ACCESS:    1310337 HIT:     188906 MISS:    1121431 MSHR_MERGE:          0
cpu0->cpu0_STLB RFO          ACCESS:          0 HIT:          0 MISS:          0 MSHR_MERGE:          0
cpu0->cpu0_STLB PREFETCH     ACCESS:          0 HIT:          0 MISS:          0 MSHR_MERGE:          0
cpu0->cpu0_STLB WRITE        ACCESS:          0 HIT:          0 MISS:          0 MSHR_MERGE:          0
cpu0->cpu0_STLB TRANSLATION  ACCESS:          0 HIT:          0 MISS:          0 MSHR_MERGE:          0
cpu0->cpu0_STLB PREFETCH REQUESTED:          0 ISSUED:          0 USEFUL:          0 USELESS:          0
cpu0->cpu0_STLB AVERAGE MISS LATENCY: 87.86 cycles
cpu0->cpu0_L2C TOTAL        ACCESS:    5947111 HIT:    1302901 MISS:    4644210 MSHR_MERGE:          0
cpu0->cpu0_L2C LOAD         ACCESS:    2443434 HIT:     645186 MISS:    1798248 MSHR_MERGE:          0
cpu0->cpu0_L2C RFO          ACCESS:     143240 HIT:       4611 MISS:     138629 MSHR_MERGE:          0
cpu0->cpu0_L2C PREFETCH     ACCESS:          0 HIT:          0 MISS:          0 MSHR_MERGE:          0
cpu0->cpu0_L2C WRITE        ACCESS:    1113253 HIT:     510336 MISS:     602917 MSHR_MERGE:          0
cpu0->cpu0_L2C TRANSLATION  ACCESS:    2247184 HIT:     142768 MISS:    2104416 MSHR_MERGE:          0
cpu0->cpu0_L2C PREFETCH REQUESTED:          0 ISSUED:          0 USEFUL:          0 USELESS:          0
cpu0->cpu0_L2C AVERAGE MISS LATENCY: 79.56 cycles
cpu0->cpu0_L1I TOTAL        ACCESS:   11127215 HIT:   11127215 MISS:          0 MSHR_MERGE:          0
cpu0->cpu0_L1I LOAD         ACCESS:   11127215 HIT:   11127215 MISS:          0 MSHR_MERGE:          0
cpu0->cpu0_L1I RFO          ACCESS:          0 HIT:          0 MISS:          0 MSHR_MERGE:          0
cpu0->cpu0_L1I PREFETCH     ACCESS:          0 HIT:          0 MISS:          0 MSHR_MERGE:          0
cpu0->cpu0_L1I WRITE        ACCESS:          0 HIT:          0 MISS:          0 MSHR_MERGE:          0
cpu0->cpu0_L1I TRANSLATION  ACCESS:          0 HIT:          0 MISS:          0 MSHR_MERGE:          0
cpu0->cpu0_L1I PREFETCH REQUESTED:          0 ISSUED:          0 USEFUL:          0 USELESS:          0
cpu0->cpu0_L1I AVERAGE MISS LATENCY: - cycles
cpu0->cpu0_L1D TOTAL        ACCESS:   14600087 HIT:    8090910 MISS:    6509177 MSHR_MERGE:    1675291
cpu0->cpu0_L1D LOAD         ACCESS:    9980242 HIT:    5871112 MISS:    4109130 MSHR_MERGE:    1665696
cpu0->cpu0_L1D RFO          ACCESS:          0 HIT:          0 MISS:          0 MSHR_MERGE:          0
cpu0->cpu0_L1D PREFETCH     ACCESS:          0 HIT:          0 MISS:          0 MSHR_MERGE:          0
cpu0->cpu0_L1D WRITE        ACCESS:    2217253 HIT:    2073935 MISS:     143318 MSHR_MERGE:         50
cpu0->cpu0_L1D TRANSLATION  ACCESS:    2402592 HIT:     145863 MISS:    2256729 MSHR_MERGE:       9545
cpu0->cpu0_L1D PREFETCH REQUESTED:          0 ISSUED:          0 USEFUL:          0 USELESS:          0
cpu0->cpu0_L1D AVERAGE MISS LATENCY: 84.89 cycles
cpu0->cpu0_ITLB TOTAL        ACCESS:    9974695 HIT:    9974695 MISS:          0 MSHR_MERGE:          0
cpu0->cpu0_ITLB LOAD         ACCESS:    9974695 HIT:    9974695 MISS:          0 MSHR_MERGE:          0
cpu0->cpu0_ITLB RFO          ACCESS:          0 HIT:          0 MISS:          0 MSHR_MERGE:          0
cpu0->cpu0_ITLB PREFETCH     ACCESS:          0 HIT:          0 MISS:          0 MSHR_MERGE:          0
cpu0->cpu0_ITLB WRITE        ACCESS:          0 HIT:          0 MISS:          0 MSHR_MERGE:          0
cpu0->cpu0_ITLB TRANSLATION  ACCESS:          0 HIT:          0 MISS:          0 MSHR_MERGE:          0
cpu0->cpu0_ITLB PREFETCH REQUESTED:          0 ISSUED:          0 USEFUL:          0 USELESS:          0
cpu0->cpu0_ITLB AVERAGE MISS LATENCY: - cycles
cpu0->cpu0_DTLB TOTAL        ACCESS:   12117093 HIT:    8804512 MISS:    3312581 MSHR_MERGE:    2002245
cpu0->cpu0_DTLB LOAD         ACCESS:   12117093 HIT:    8804512 MISS:    3312581 MSHR_MERGE:    2002245
cpu0->cpu0_DTLB RFO          ACCESS:          0 HIT:          0 MISS:          0 MSHR_MERGE:          0
cpu0->cpu0_DTLB PREFETCH     ACCESS:          0 HIT:          0 MISS:          0 MSHR_MERGE:          0
cpu0->cpu0_DTLB WRITE        ACCESS:          0 HIT:          0 MISS:          0 MSHR_MERGE:          0
cpu0->cpu0_DTLB TRANSLATION  ACCESS:          0 HIT:          0 MISS:          0 MSHR_MERGE:          0
cpu0->cpu0_DTLB PREFETCH REQUESTED:          0 ISSUED:          0 USEFUL:          0 USELESS:          0
cpu0->cpu0_DTLB AVERAGE MISS LATENCY: 81.05 cycles
cpu0->LLC TOTAL        ACCESS:    5150796 HIT:    3789576 MISS:    1361220 MSHR_MERGE:          0
cpu0->LLC LOAD         ACCESS:    1798248 HIT:     529317 MISS:    1268931 MSHR_MERGE:          0
cpu0->LLC RFO          ACCESS:     138629 HIT:     138618 MISS:         11 MSHR_MERGE:          0
cpu0->LLC PREFETCH     ACCESS:          0 HIT:          0 MISS:          0 MSHR_MERGE:          0
cpu0->LLC WRITE        ACCESS:    1109503 HIT:    1108608 MISS:        895 MSHR_MERGE:          0
cpu0->LLC TRANSLATION  ACCESS:    2104416 HIT:    2013033 MISS:      91383 MSHR_MERGE:          0
cpu0->LLC PREFETCH REQUESTED:          0 ISSUED:          0 USEFUL:          0 USELESS:          0
cpu0->LLC AVERAGE MISS LATENCY: 224.1 cycles

DRAM Statistics

Channel 0 RQ ROW_BUFFER_HIT:        409
  ROW_BUFFER_MISS:    1359916
  AVG DBUS CONGESTED CYCLE: 5.852
Channel 0 WQ ROW_BUFFER_HIT:     361994
  ROW_BUFFER_MISS:     747139
  FULL:          0
Channel 0 REFRESHES ISSUED:      17295
