[VMEM] WARNING: physical memory size is smaller than virtual memory size.

*** ChampSim Multicore Out-of-Order Simulator ***
Warmup Instructions: 10000000
Simulation Instructions: 50000000
Number of CPUs: 1
Page size: 4096

Off-chip DRAM Size: 16 GiB Channels: 1 Width: 64-bit Data Rate: 3205 MT/s
Heartbeat CPU 0 instructions: 10000000 cycles: 2534703 heartbeat IPC: 3.945 cumulative IPC: 3.945 (Simulation time: 00 hr 00 min 19 sec)
Warmup finished CPU 0 instructions: 10000000 cycles: 2534703 cumulative IPC: 3.945 (Simulation time: 00 hr 00 min 19 sec)
Warmup complete CPU 0 instructions: 10000000 cycles: 2534703 cumulative IPC: 3.945 (Simulation time: 00 hr 00 min 19 sec)
Heartbeat CPU 0 instructions: 20000001 cycles: 9560559 heartbeat IPC: 1.423 cumulative IPC: 1.423 (Simulation time: 00 hr 00 min 50 sec)
Heartbeat CPU 0 instructions: 30000001 cycles: 16751056 heartbeat IPC: 1.391 cumulative IPC: 1.407 (Simulation time: 00 hr 01 min 21 sec)
Heartbeat CPU 0 instructions: 40000005 cycles: 23946789 heartbeat IPC: 1.39 cumulative IPC: 1.401 (Simulation time: 00 hr 01 min 52 sec)
Heartbeat CPU 0 instructions: 50000007 cycles: 31084472 heartbeat IPC: 1.401 cumulative IPC: 1.401 (Simulation time: 00 hr 02 min 24 sec)
Simulation finished CPU 0 instructions: 50000002 cycles: 35758677 cumulative IPC: 1.398 (Simulation time: 00 hr 02 min 55 sec)
Simulation complete CPU 0 instructions: 50000002 cycles: 35758677 cumulative IPC: 1.398 (Simulation time: 00 hr 02 min 55 sec)

ChampSim completed all CPUs

=== Simulation ===
CPU 0 runs traces/657.xz_s-4994B.champsimtrace.xz

Region of Interest Statistics

CPU 0 cumulative IPC: 1.398 instructions: 50000002 cycles: 35758677
CPU 0 Branch Prediction Accuracy: 85.75% MPKI: 14.94 Average ROB Occupancy at Mispredict: 28.69
Branch type MPKI
BRANCH_DIRECT_JUMP: 0.00012
BRANCH_INDIRECT: 0.00102
BRANCH_CONDITIONAL: 14.94
BRANCH_DIRECT_CALL: 0
BRANCH_INDIRECT_CALL: 0
BRANCH_RETURN: 2e-05

cpu0->cpu0_STLB TOTAL        ACCESS:        308 HIT:        153 MISS:        155 MSHR_MERGE:          0
cpu0->cpu0_STLB LOAD         ACCESS:        308 HIT:        153 MISS:        155 MSHR_MERGE:          0
cpu0->cpu0_STLB RFO          ACCESS:          0 HIT:          0 MISS:          0 MSHR_MERGE:          0
cpu0->cpu0_STLB PREFETCH     ACCESS:          0 HIT:          0 MISS:          0 MSHR_MERGE:          0
cpu0->cpu0_STLB WRITE        ACCESS:          0 HIT:          0 MISS:          0 MSHR_MERGE:          0
cpu0->cpu0_STLB TRANSLATION  ACCESS:          0 HIT:          0 MISS:          0 MSHR_MERGE:          0
cpu0->cpu0_STLB PREFETCH REQUESTED:          0 ISSUED:          0 USEFUL:          0 USELESS:          0
cpu0->cpu0_STLB AVERAGE MISS LATENCY: 676.2 cycles
cpu0->cpu0_L2C TOTAL        ACCESS:      31353 HIT:      20943 MISS:      10410 MSHR_MERGE:          0
cpu0->cpu0_L2C LOAD         ACCESS:       9179 HIT:       6397 MISS:       2782 MSHR_MERGE:          0
cpu0->cpu0_L2C RFO          ACCESS:       9494 HIT:       2983 MISS:       6511 MSHR_MERGE:          0
cpu0->cpu0_L2C PREFETCH     ACCESS:          0 HIT:          0 MISS:          0 MSHR_MERGE:          0
cpu0->cpu0_L2C WRITE        ACCESS:      12428 HIT:      11516 MISS:        912 MSHR_MERGE:          0
cpu0->cpu0_L2C TRANSLATION  ACCESS:        252 HIT:         47 MISS:        205 MSHR_MERGE:          0
cpu0->cpu0_L2C PREFETCH REQUESTED:          0 ISSUED:          0 USEFUL:          0 USELESS:          0
cpu0->cpu0_L2C AVERAGE MISS LATENCY: 145.6 cycles
cpu0->cpu0_L1I TOTAL        ACCESS:    1224606 HIT:    1224599 MISS:          7 MSHR_MERGE:          1
cpu0->cpu0_L1I LOAD         ACCESS:    1224606 HIT:    1224599 MISS:          7 MSHR_MERGE:          1
cpu0->cpu0_L1I RFO          ACCESS:          0 HIT:          0 MISS:          0 MSHR_MERGE:          0
cpu0->cpu0_L1I PREFETCH     ACCESS:          0 HIT:          0 MISS:          0 MSHR_MERGE:          0
cpu0->cpu0_L1I WRITE        ACCESS:          0 HIT:          0 MISS:          0 MSHR_MERGE:          0
cpu0->cpu0_L1I TRANSLATION  ACCESS:          0 HIT:          0 MISS:          0 MSHR_MERGE:          0
cpu0->cpu0_L1I PREFETCH REQUESTED:          0 ISSUED:          0 USEFUL:          0 USELESS:          0
cpu0->cpu0_L1I AVERAGE MISS LATENCY: 176.7 cycles
cpu0->cpu0_L1D TOTAL        ACCESS:    7869072 HIT:    7803459 MISS:      65613 MSHR_MERGE:      46694
cpu0->cpu0_L1D LOAD         ACCESS:    4744441 HIT:    4732321 MISS:      12120 MSHR_MERGE:       2947
cpu0->cpu0_L1D RFO          ACCESS:          0 HIT:          0 MISS:          0 MSHR_MERGE:          0
cpu0->cpu0_L1D PREFETCH     ACCESS:          0 HIT:          0 MISS:          0 MSHR_MERGE:          0
cpu0->cpu0_L1D WRITE        ACCESS:    3124321 HIT:    3071080 MISS:      53241 MSHR_MERGE:      43747
cpu0->cpu0_L1D TRANSLATION  ACCESS:        310 HIT:         58 MISS:        252 MSHR_MERGE:          0
cpu0->cpu0_L1D PREFETCH REQUESTED:          0 ISSUED:          0 USEFUL:          0 USELESS:          0
cpu0->cpu0_L1D AVERAGE MISS LATENCY: 88.35 cycles
cpu0->cpu0_ITLB TOTAL        ACCESS:    1093629 HIT:    1093629 MISS:          0 MSHR_MERGE:          0
cpu0->cpu0_ITLB LOAD         ACCESS:    1093629 HIT:    1093629 MISS:          0 MSHR_MERGE:          0
cpu0->cpu0_ITLB RFO          ACCESS:          0 HIT:          0 MISS:          0 MSHR_MERGE:          0
cpu0->cpu0_ITLB PREFETCH     ACCESS:          0 HIT:          0 MISS:          0 MSHR_MERGE:          0
cpu0->cpu0_ITLB WRITE        ACCESS:          0 HIT:          0 MISS:          0 MSHR_MERGE:          0
cpu0->cpu0_ITLB TRANSLATION  ACCESS:          0 HIT:          0 MISS:          0 MSHR_MERGE:          0
cpu0->cpu0_ITLB PREFETCH REQUESTED:          0 ISSUED:          0 USEFUL:          0 USELESS:          0
cpu0->cpu0_ITLB AVERAGE MISS LATENCY: - cycles
cpu0->cpu0_DTLB TOTAL        ACCESS:    7410778 HIT:    7409667 MISS:       1111 MSHR_MERGE:        803
cpu0->cpu0_DTLB LOAD         ACCESS:    7410778 HIT:    7409667 MISS:       1111 MSHR_MERGE:        803
cpu0->cpu0_DTLB RFO          ACCESS:          0 HIT:          0 MISS:          0 MSHR_MERGE:          0
cpu0->cpu0_DTLB PREFETCH     ACCESS:          0 HIT:          0 MISS:          0 MSHR_MERGE:          0
cpu0->cpu0_DTLB WRITE        ACCESS:          0 HIT:          0 MISS:          0 MSHR_MERGE:          0
cpu0->cpu0_DTLB TRANSLATION  ACCESS:          0 HIT:          0 MISS:          0 MSHR_MERGE:          0
cpu0->cpu0_DTLB PREFETCH REQUESTED:          0 ISSUED:          0 USEFUL:          0 USELESS:          0
cpu0->cpu0_DTLB AVERAGE MISS LATENCY: 345.8 cycles
cpu0->LLC TOTAL        ACCESS:      12390 HIT:       3131 MISS:       9259 MSHR_MERGE:          0
cpu0->LLC LOAD         ACCESS:       2782 HIT:        228 MISS:       2554 MSHR_MERGE:          0
cpu0->LLC RFO          ACCESS:       6511 HIT:          0 MISS:       6511 MSHR_MERGE:          0
cpu0->LLC PREFETCH     ACCESS:          0 HIT:          0 MISS:          0 MSHR_MERGE:          0
cpu0->LLC WRITE        ACCESS:       2892 HIT:       2892 MISS:          0 MSHR_MERGE:          0
cpu0->LLC TRANSLATION  ACCESS:        205 HIT:         11 MISS:        194 MSHR_MERGE:          0
cpu0->LLC PREFETCH REQUESTED:          0 ISSUED:          0 USEFUL:          0 USELESS:          0
cpu0->LLC AVERAGE MISS LATENCY: 146.9 cycles

DRAM Statistics

Channel 0 RQ ROW_BUFFER_HIT:       2174
  ROW_BUFFER_MISS:       7085
  AVG DBUS CONGESTED CYCLE: 2.656
Channel 0 WQ ROW_BUFFER_HIT:          0
  ROW_BUFFER_MISS:          0
  FULL:          0
Channel 0 REFRESHES ISSUED:       2980
