[VMEM] WARNING: physical memory size is smaller than virtual memory size.

*** ChampSim Multicore Out-of-Order Simulator ***
Warmup Instructions: 10000000
Simulation Instructions: 50000000
Number of CPUs: 1
Page size: 4096

Off-chip DRAM Size: 16 GiB Channels: 1 Width: 64-bit Data Rate: 3205 MT/s
Heartbeat CPU 0 instructions: 10000002 cycles: 2776384 heartbeat IPC: 3.602 cumulative IPC: 3.602 (Simulation time: 00 hr 00 min 21 sec)
Warmup finished CPU 0 instructions: 10000002 cycles: 2776384 cumulative IPC: 3.602 (Simulation time: 00 hr 00 min 21 sec)
Warmup complete CPU 0 instructions: 10000002 cycles: 2776384 cumulative IPC: 3.602 (Simulation time: 00 hr 00 min 21 sec)
Heartbeat CPU 0 instructions: 20000005 cycles: 10800977 heartbeat IPC: 1.246 cumulative IPC: 1.246 (Simulation time: 00 hr 01 min 12 sec)
Heartbeat CPU 0 instructions: 30000007 cycles: 17229209 heartbeat IPC: 1.556 cumulative IPC: 1.384 (Simulation time: 00 hr 01 min 56 sec)
Heartbeat CPU 0 instructions: 40000010 cycles: 25285382 heartbeat IPC: 1.241 cumulative IPC: 1.333 (Simulation time: 00 hr 02 min 48 sec)
Heartbeat CPU 0 instructions: 50000012 cycles: 31718983 heartbeat IPC: 1.554 cumulative IPC: 1.382 (Simulation time: 00 hr 03 min 32 sec)
Simulation finished CPU 0 instructions: 50000001 cycles: 36856396 cumulative IPC: 1.357 (Simulation time: 00 hr 04 min 23 sec)
Simulation complete CPU 0 instructions: 50000001 cycles: 36856396 cumulative IPC: 1.357 (Simulation time: 00 hr 04 min 23 sec)

ChampSim completed all CPUs

=== Simulation ===
CPU 0 runs traces/654.roms_s-293B.champsimtrace.xz

Region of Interest Statistics

CPU 0 cumulative IPC: 1.357 instructions: 50000001 cycles: 36856396
CPU 0 Branch Prediction Accuracy: 99.8% MPKI: 0.02602 Average ROB Occupancy at Mispredict: 336.8
Branch type MPKI
BRANCH_DIRECT_JUMP: 0
BRANCH_INDIRECT: 0
BRANCH_CONDITIONAL: 0.02602
BRANCH_DIRECT_CALL: 0
BRANCH_INDIRECT_CALL: 0
BRANCH_RETURN: 0

cpu0->cpu0_STLB TOTAL        ACCESS:      14347 HIT:       9307 MISS:       5040 MSHR_MERGE:          0
cpu0->cpu0_STLB LOAD         ACCESS:      14347 HIT:       9307 MISS:       5040 MSHR_MERGE:          0
cpu0->cpu0_STLB RFO          ACCESS:          0 HIT:          0 MISS:          0 MSHR_MERGE:          0
cpu0->cpu0_STLB PREFETCH     ACCESS:          0 HIT:          0 MISS:          0 MSHR_MERGE:          0
cpu0->cpu0_STLB WRITE        ACCESS:          0 HIT:          0 MISS:          0 MSHR_MERGE:          0
cpu0->cpu0_STLB TRANSLATION  ACCESS:          0 HIT:          0 MISS:          0 MSHR_MERGE:          0
cpu0->cpu0_STLB PREFETCH REQUESTED:          0 ISSUED:          0 USEFUL:          0 USELESS:          0
cpu0->cpu0_STLB AVERAGE MISS LATENCY: 880.3 cycles
cpu0->cpu0_L2C TOTAL        ACCESS:     879024 HIT:     267137 MISS:     611887 MSHR_MERGE:          0
cpu0->cpu0_L2C LOAD         ACCESS:     366287 HIT:     110736 MISS:     255551 MSHR_MERGE:          0
cpu0->cpu0_L2C RFO          ACCESS:     250808 HIT:      40537 MISS:     210271 MSHR_MERGE:          0
cpu0->cpu0_L2C PREFETCH     ACCESS:          0 HIT:          0 MISS:          0 MSHR_MERGE:          0
cpu0->cpu0_L2C WRITE        ACCESS:     251768 HIT:     115310 MISS:     136458 MSHR_MERGE:          0
cpu0->cpu0_L2C TRANSLATION  ACCESS:      10161 HIT:        554 MISS:       9607 MSHR_MERGE:          0
cpu0->cpu0_L2C PREFETCH REQUESTED:          0 ISSUED:          0 USEFUL:          0 USELESS:          0
cpu0->cpu0_L2C AVERAGE MISS LATENCY: 121.7 cycles
cpu0->cpu0_L1I TOTAL        ACCESS:   10055035 HIT:   10055035 MISS:          0 MSHR_MERGE:          0
cpu0->cpu0_L1I LOAD         ACCESS:   10055035 HIT:   10055035 MISS:          0 MSHR_MERGE:          0
cpu0->cpu0_L1I RFO          ACCESS:          0 HIT:          0 MISS:          0 MSHR_MERGE:          0
cpu0->cpu0_L1I PREFETCH     ACCESS:          0 HIT:          0 MISS:          0 MSHR_MERGE:          0
cpu0->cpu0_L1I WRITE        ACCESS:          0 HIT:          0 MISS:          0 MSHR_MERGE:          0
cpu0->cpu0_L1I TRANSLATION  ACCESS:          0 HIT:          0 MISS:          0 MSHR_MERGE:          0
cpu0->cpu0_L1I PREFETCH REQUESTED:          0 ISSUED:          0 USEFUL:          0 USELESS:          0
cpu0->cpu0_L1I AVERAGE MISS LATENCY: - cycles
cpu0->cpu0_L1D TOTAL        ACCESS:   15651379 HIT:   14194084 MISS:    1457295 MSHR_MERGE:     830011
cpu0->cpu0_L1D LOAD         ACCESS:   11014741 HIT:   10409322 MISS:     605419 MSHR_MERGE:     239132
cpu0->cpu0_L1D RFO          ACCESS:          0 HIT:          0 MISS:          0 MSHR_MERGE:          0
cpu0->cpu0_L1D PREFETCH     ACCESS:          0 HIT:          0 MISS:          0 MSHR_MERGE:          0
cpu0->cpu0_L1D WRITE        ACCESS:    4623968 HIT:    3782300 MISS:     841668 MSHR_MERGE:     590832
cpu0->cpu0_L1D TRANSLATION  ACCESS:      12670 HIT:       2462 MISS:      10208 MSHR_MERGE:         47
cpu0->cpu0_L1D PREFETCH REQUESTED:          0 ISSUED:          0 USEFUL:          0 USELESS:          0
cpu0->cpu0_L1D AVERAGE MISS LATENCY: 126.6 cycles
cpu0->cpu0_ITLB TOTAL        ACCESS:    7489079 HIT:    7489079 MISS:          0 MSHR_MERGE:          0
cpu0->cpu0_ITLB LOAD         ACCESS:    7489079 HIT:    7489079 MISS:          0 MSHR_MERGE:          0
cpu0->cpu0_ITLB RFO          ACCESS:          0 HIT:          0 MISS:          0 MSHR_MERGE:          0
cpu0->cpu0_ITLB PREFETCH     ACCESS:          0 HIT:          0 MISS:          0 MSHR_MERGE:          0
cpu0->cpu0_ITLB WRITE        ACCESS:          0 HIT:          0 MISS:          0 MSHR_MERGE:          0
cpu0->cpu0_ITLB TRANSLATION  ACCESS:          0 HIT:          0 MISS:          0 MSHR_MERGE:          0
cpu0->cpu0_ITLB PREFETCH REQUESTED:          0 ISSUED:          0 USEFUL:          0 USELESS:          0
cpu0->cpu0_ITLB AVERAGE MISS LATENCY: - cycles
cpu0->cpu0_DTLB TOTAL        ACCESS:   14807317 HIT:   14767170 MISS:      40147 MSHR_MERGE:      25800
cpu0->cpu0_DTLB LOAD         ACCESS:   14807317 HIT:   14767170 MISS:      40147 MSHR_MERGE:      25800
cpu0->cpu0_DTLB RFO          ACCESS:          0 HIT:          0 MISS:          0 MSHR_MERGE:          0
cpu0->cpu0_DTLB PREFETCH     ACCESS:          0 HIT:          0 MISS:          0 MSHR_MERGE:          0
cpu0->cpu0_DTLB WRITE        ACCESS:          0 HIT:          0 MISS:          0 MSHR_MERGE:          0
cpu0->cpu0_DTLB TRANSLATION  ACCESS:          0 HIT:          0 MISS:          0 MSHR_MERGE:          0
cpu0->cpu0_DTLB PREFETCH REQUESTED:          0 ISSUED:          0 USEFUL:          0 USELESS:          0
cpu0->cpu0_DTLB AVERAGE MISS LATENCY: 314.6 cycles
cpu0->LLC TOTAL        ACCESS:     694802 HIT:     407778 MISS:     287024 MSHR_MERGE:          0
cpu0->LLC LOAD         ACCESS:     255551 HIT:     144179 MISS:     111372 MSHR_MERGE:          0
cpu0->LLC RFO          ACCESS:     210271 HIT:      52146 MISS:     158125 MSHR_MERGE:          0
cpu0->LLC PREFETCH     ACCESS:          0 HIT:          0 MISS:          0 MSHR_MERGE:          0
cpu0->LLC WRITE        ACCESS:     219373 HIT:     210611 MISS:       8762 MSHR_MERGE:          0
cpu0->LLC TRANSLATION  ACCESS:       9607 HIT:        842 MISS:       8765 MSHR_MERGE:          0
cpu0->LLC PREFETCH REQUESTED:          0 ISSUED:          0 USEFUL:          0 USELESS:          0
cpu0->LLC AVERAGE MISS LATENCY: 231.9 cycles

DRAM Statistics

Channel 0 RQ ROW_BUFFER_HIT:       2298
  ROW_BUFFER_MISS:     275429
  AVG DBUS CONGESTED CYCLE: 8.262
Channel 0 WQ ROW_BUFFER_HIT:      52235
  ROW_BUFFER_MISS:     123577
  FULL:          0
Channel 0 REFRESHES ISSUED:       3071
