[VMEM] WARNING: physical memory size is smaller than virtual memory size.

*** ChampSim Multicore Out-of-Order Simulator ***
Warmup Instructions: 10000000
Simulation Instructions: 50000000
Number of CPUs: 1
Page size: 4096

Off-chip DRAM Size: 16 GiB Channels: 1 Width: 64-bit Data Rate: 3205 MT/s
Heartbeat CPU 0 instructions: 10000000 cycles: 2873611 heartbeat IPC: 3.48 cumulative IPC: 3.48 (Simulation time: 00 hr 00 min 21 sec)
Warmup finished CPU 0 instructions: 10000000 cycles: 2873611 cumulative IPC: 3.48 (Simulation time: 00 hr 00 min 21 sec)
Warmup complete CPU 0 instructions: 10000000 cycles: 2873611 cumulative IPC: 3.48 (Simulation time: 00 hr 00 min 21 sec)
Heartbeat CPU 0 instructions: 20000000 cycles: 10600975 heartbeat IPC: 1.294 cumulative IPC: 1.294 (Simulation time: 00 hr 01 min 00 sec)
Heartbeat CPU 0 instructions: 30000002 cycles: 21249487 heartbeat IPC: 0.9391 cumulative IPC: 1.088 (Simulation time: 00 hr 01 min 50 sec)
Heartbeat CPU 0 instructions: 40000004 cycles: 30060763 heartbeat IPC: 1.135 cumulative IPC: 1.103 (Simulation time: 00 hr 02 min 33 sec)
Heartbeat CPU 0 instructions: 50000006 cycles: 39748528 heartbeat IPC: 1.032 cumulative IPC: 1.085 (Simulation time: 00 hr 03 min 20 sec)
Simulation finished CPU 0 instructions: 50000003 cycles: 46981710 cumulative IPC: 1.064 (Simulation time: 00 hr 04 min 08 sec)
Simulation complete CPU 0 instructions: 50000003 cycles: 46981710 cumulative IPC: 1.064 (Simulation time: 00 hr 04 min 08 sec)

ChampSim completed all CPUs

=== Simulation ===
CPU 0 runs traces/627.cam4_s-490B.champsimtrace.xz

Region of Interest Statistics

CPU 0 cumulative IPC: 1.064 instructions: 50000003 cycles: 46981710
CPU 0 Branch Prediction Accuracy: 90.31% MPKI: 9.36 Average ROB Occupancy at Mispredict: 34.98
Branch type MPKI
BRANCH_DIRECT_JUMP: 0.00628
BRANCH_INDIRECT: 0
BRANCH_CONDITIONAL: 9.353
BRANCH_DIRECT_CALL: 0.0001
BRANCH_INDIRECT_CALL: 0
BRANCH_RETURN: 0.00014

cpu0->cpu0_STLB TOTAL        ACCESS:      15736 HIT:      14879 MISS:        857 MSHR_MERGE:          0
cpu0->cpu0_STLB LOAD         ACCESS:      15736 HIT:      14879 MISS:        857 MSHR_MERGE:          0
cpu0->cpu0_STLB RFO          ACCESS:          0 HIT:          0 MISS:          0 MSHR_MERGE:          0
cpu0->cpu0_STLB PREFETCH     ACCESS:          0 HIT:          0 MISS:          0 MSHR_MERGE:          0
cpu0->cpu0_STLB WRITE        ACCESS:          0 HIT:          0 MISS:          0 MSHR_MERGE:          0
cpu0->cpu0_STLB TRANSLATION  ACCESS:          0 HIT:          0 MISS:          0 MSHR_MERGE:          0
cpu0->cpu0_STLB PREFETCH REQUESTED:          0 ISSUED:          0 USEFUL:          0 USELESS:          0
cpu0->cpu0_STLB AVERAGE MISS LATENCY: 703 cycles
cpu0->cpu0_L2C TOTAL        ACCESS:    1299486 HIT:     384723 MISS:     914763 MSHR_MERGE:          0
cpu0->cpu0_L2C LOAD         ACCESS:     630687 HIT:     129435 MISS:     501252 MSHR_MERGE:          0
cpu0->cpu0_L2C RFO          ACCESS:     279563 HIT:      69164 MISS:     210399 MSHR_MERGE:          0
cpu0->cpu0_L2C PREFETCH     ACCESS:          0 HIT:          0 MISS:          0 MSHR_MERGE:          0
cpu0->cpu0_L2C WRITE        ACCESS:     388166 HIT:     186124 MISS:     202042 MSHR_MERGE:          0
cpu0->cpu0_L2C TRANSLATION  ACCESS:       1070 HIT:          0 MISS:       1070 MSHR_MERGE:          0
cpu0->cpu0_L2C PREFETCH REQUESTED:          0 ISSUED:          0 USEFUL:          0 USELESS:          0
cpu0->cpu0_L2C AVERAGE MISS LATENCY: 65.57 cycles
cpu0->cpu0_L1I TOTAL        ACCESS:    3469551 HIT:    3466982 MISS:       2569 MSHR_MERGE:       1361
cpu0->cpu0_L1I LOAD         ACCESS:    3469551 HIT:    3466982 MISS:       2569 MSHR_MERGE:       1361
cpu0->cpu0_L1I RFO          ACCESS:          0 HIT:          0 MISS:          0 MSHR_MERGE:          0
cpu0->cpu0_L1I PREFETCH     ACCESS:          0 HIT:          0 MISS:          0 MSHR_MERGE:          0
cpu0->cpu0_L1I WRITE        ACCESS:          0 HIT:          0 MISS:          0 MSHR_MERGE:          0
cpu0->cpu0_L1I TRANSLATION  ACCESS:          0 HIT:          0 MISS:          0 MSHR_MERGE:          0
cpu0->cpu0_L1I PREFETCH REQUESTED:          0 ISSUED:          0 USEFUL:          0 USELESS:          0
cpu0->cpu0_L1I AVERAGE MISS LATENCY: 248.9 cycles
cpu0->cpu0_L1D TOTAL        ACCESS:    9950451 HIT:    7416812 MISS:    2533639 MSHR_MERGE:    1623526
cpu0->cpu0_L1D LOAD         ACCESS:    6639482 HIT:    5255187 MISS:    1384295 MSHR_MERGE:     754816
cpu0->cpu0_L1D RFO          ACCESS:          0 HIT:          0 MISS:          0 MSHR_MERGE:          0
cpu0->cpu0_L1D PREFETCH     ACCESS:          0 HIT:          0 MISS:          0 MSHR_MERGE:          0
cpu0->cpu0_L1D WRITE        ACCESS:    3309250 HIT:    2160977 MISS:    1148273 MSHR_MERGE:     868709
cpu0->cpu0_L1D TRANSLATION  ACCESS:       1719 HIT:        648 MISS:       1071 MSHR_MERGE:          1
cpu0->cpu0_L1D PREFETCH REQUESTED:          0 ISSUED:          0 USEFUL:          0 USELESS:          0
cpu0->cpu0_L1D AVERAGE MISS LATENCY: 73.52 cycles
cpu0->cpu0_ITLB TOTAL        ACCESS:    3127500 HIT:    3127478 MISS:         22 MSHR_MERGE:         16
cpu0->cpu0_ITLB LOAD         ACCESS:    3127500 HIT:    3127478 MISS:         22 MSHR_MERGE:         16
cpu0->cpu0_ITLB RFO          ACCESS:          0 HIT:          0 MISS:          0 MSHR_MERGE:          0
cpu0->cpu0_ITLB PREFETCH     ACCESS:          0 HIT:          0 MISS:          0 MSHR_MERGE:          0
cpu0->cpu0_ITLB WRITE        ACCESS:          0 HIT:          0 MISS:          0 MSHR_MERGE:          0
cpu0->cpu0_ITLB TRANSLATION  ACCESS:          0 HIT:          0 MISS:          0 MSHR_MERGE:          0
cpu0->cpu0_ITLB PREFETCH REQUESTED:          0 ISSUED:          0 USEFUL:          0 USELESS:          0
cpu0->cpu0_ITLB AVERAGE MISS LATENCY: 898.2 cycles
cpu0->cpu0_DTLB TOTAL        ACCESS:    9644868 HIT:    9617506 MISS:      27362 MSHR_MERGE:      11632
cpu0->cpu0_DTLB LOAD         ACCESS:    9644868 HIT:    9617506 MISS:      27362 MSHR_MERGE:      11632
cpu0->cpu0_DTLB RFO          ACCESS:          0 HIT:          0 MISS:          0 MSHR_MERGE:          0
cpu0->cpu0_DTLB PREFETCH     ACCESS:          0 HIT:          0 MISS:          0 MSHR_MERGE:          0
cpu0->cpu0_DTLB WRITE        ACCESS:          0 HIT:          0 MISS:          0 MSHR_MERGE:          0
cpu0->cpu0_DTLB TRANSLATION  ACCESS:          0 HIT:          0 MISS:          0 MSHR_MERGE:          0
cpu0->cpu0_DTLB PREFETCH REQUESTED:          0 ISSUED:          0 USEFUL:          0 USELESS:          0
cpu0->cpu0_DTLB AVERAGE MISS LATENCY: 43.01 cycles
cpu0->LLC TOTAL        ACCESS:    1016394 HIT:     824673 MISS:     191721 MSHR_MERGE:          0
cpu0->LLC LOAD         ACCESS:     501251 HIT:     413573 MISS:      87678 MSHR_MERGE:          0
cpu0->LLC RFO          ACCESS:     210398 HIT:     109815 MISS:     100583 MSHR_MERGE:          0
cpu0->LLC PREFETCH     ACCESS:          0 HIT:          0 MISS:          0 MSHR_MERGE:          0
cpu0->LLC WRITE        ACCESS:     303675 HIT:     301274 MISS:       2401 MSHR_MERGE:          0
cpu0->LLC TRANSLATION  ACCESS:       1070 HIT:         11 MISS:       1059 MSHR_MERGE:          0
cpu0->LLC PREFETCH REQUESTED:          0 ISSUED:          0 USEFUL:          0 USELESS:          0
cpu0->LLC AVERAGE MISS LATENCY: 251.9 cycles

DRAM Statistics

Channel 0 RQ ROW_BUFFER_HIT:      12002
  ROW_BUFFER_MISS:     177025
  AVG DBUS CONGESTED CYCLE: 11.05
Channel 0 WQ ROW_BUFFER_HIT:      33471
  ROW_BUFFER_MISS:     114393
  FULL:          0
Channel 0 REFRESHES ISSUED:       3915
