[VMEM] WARNING: physical memory size is smaller than virtual memory size.

*** ChampSim Multicore Out-of-Order Simulator ***
Warmup Instructions: 10000000
Simulation Instructions: 50000000
Number of CPUs: 1
Page size: 4096

Off-chip DRAM Size: 16 GiB Channels: 1 Width: 64-bit Data Rate: 3205 MT/s
Heartbeat CPU 0 instructions: 10000001 cycles: 3398637 heartbeat IPC: 2.942 cumulative IPC: 2.942 (Simulation time: 00 hr 00 min 26 sec)
Warmup finished CPU 0 instructions: 10000001 cycles: 3398637 cumulative IPC: 2.942 (Simulation time: 00 hr 00 min 26 sec)
Warmup complete CPU 0 instructions: 10000001 cycles: 3398637 cumulative IPC: 2.942 (Simulation time: 00 hr 00 min 26 sec)
Heartbeat CPU 0 instructions: 20000002 cycles: 12759638 heartbeat IPC: 1.068 cumulative IPC: 1.068 (Simulation time: 00 hr 01 min 07 sec)
Heartbeat CPU 0 instructions: 30000005 cycles: 22020673 heartbeat IPC: 1.08 cumulative IPC: 1.074 (Simulation time: 00 hr 01 min 47 sec)
Heartbeat CPU 0 instructions: 40000005 cycles: 31223022 heartbeat IPC: 1.087 cumulative IPC: 1.078 (Simulation time: 00 hr 02 min 27 sec)
Heartbeat CPU 0 instructions: 50000009 cycles: 40351067 heartbeat IPC: 1.096 cumulative IPC: 1.082 (Simulation time: 00 hr 03 min 07 sec)
Simulation finished CPU 0 instructions: 50000003 cycles: 46297839 cumulative IPC: 1.08 (Simulation time: 00 hr 03 min 48 sec)
Simulation complete CPU 0 instructions: 50000003 cycles: 46297839 cumulative IPC: 1.08 (Simulation time: 00 hr 03 min 48 sec)

ChampSim completed all CPUs

=== Simulation ===
CPU 0 runs traces/631.deepsjeng_s-928B.champsimtrace.xz

Region of Interest Statistics

CPU 0 cumulative IPC: 1.08 instructions: 50000003 cycles: 46297839
CPU 0 Branch Prediction Accuracy: 89.86% MPKI: 15.07 Average ROB Occupancy at Mispredict: 29.12
Branch type MPKI
BRANCH_DIRECT_JUMP: 0.01754
BRANCH_INDIRECT: 0.01102
BRANCH_CONDITIONAL: 14.54
BRANCH_DIRECT_CALL: 0.01738
BRANCH_INDIRECT_CALL: 0
BRANCH_RETURN: 0.4758

cpu0->cpu0_STLB TOTAL        ACCESS:      13767 HIT:       4627 MISS:       9140 MSHR_MERGE:          0
cpu0->cpu0_STLB LOAD         ACCESS:      13767 HIT:       4627 MISS:       9140 MSHR_MERGE:          0
cpu0->cpu0_STLB RFO          ACCESS:          0 HIT:          0 MISS:          0 MSHR_MERGE:          0
cpu0->cpu0_STLB PREFETCH     ACCESS:          0 HIT:          0 MISS:          0 MSHR_MERGE:          0
cpu0->cpu0_STLB WRITE        ACCESS:          0 HIT:          0 MISS:          0 MSHR_MERGE:          0
cpu0->cpu0_STLB TRANSLATION  ACCESS:          0 HIT:          0 MISS:          0 MSHR_MERGE:          0
cpu0->cpu0_STLB PREFETCH REQUESTED:          0 ISSUED:          0 USEFUL:          0 USELESS:          0
cpu0->cpu0_STLB AVERAGE MISS LATENCY: 846.9 cycles
cpu0->cpu0_L2C TOTAL        ACCESS:     144069 HIT:     102423 MISS:      41646 MSHR_MERGE:          0
cpu0->cpu0_L2C LOAD         ACCESS:      75352 HIT:      60321 MISS:      15031 MSHR_MERGE:          0
cpu0->cpu0_L2C RFO          ACCESS:      14742 HIT:      14116 MISS:        626 MSHR_MERGE:          0
cpu0->cpu0_L2C PREFETCH     ACCESS:          0 HIT:          0 MISS:          0 MSHR_MERGE:          0
cpu0->cpu0_L2C WRITE        ACCESS:      27159 HIT:      24406 MISS:       2753 MSHR_MERGE:          0
cpu0->cpu0_L2C TRANSLATION  ACCESS:      26816 HIT:       3580 MISS:      23236 MSHR_MERGE:          0
cpu0->cpu0_L2C PREFETCH REQUESTED:          0 ISSUED:          0 USEFUL:          0 USELESS:          0
cpu0->cpu0_L2C AVERAGE MISS LATENCY: 144.9 cycles
cpu0->cpu0_L1I TOTAL        ACCESS:    5825002 HIT:    5765989 MISS:      59013 MSHR_MERGE:      14054
cpu0->cpu0_L1I LOAD         ACCESS:    5825002 HIT:    5765989 MISS:      59013 MSHR_MERGE:      14054
cpu0->cpu0_L1I RFO          ACCESS:          0 HIT:          0 MISS:          0 MSHR_MERGE:          0
cpu0->cpu0_L1I PREFETCH     ACCESS:          0 HIT:          0 MISS:          0 MSHR_MERGE:          0
cpu0->cpu0_L1I WRITE        ACCESS:          0 HIT:          0 MISS:          0 MSHR_MERGE:          0
cpu0->cpu0_L1I TRANSLATION  ACCESS:          0 HIT:          0 MISS:          0 MSHR_MERGE:          0
cpu0->cpu0_L1I PREFETCH REQUESTED:          0 ISSUED:          0 USEFUL:          0 USELESS:          0
cpu0->cpu0_L1I AVERAGE MISS LATENCY: 7.084 cycles
cpu0->cpu0_L1D TOTAL        ACCESS:   15198805 HIT:   15092591 MISS:     106214 MSHR_MERGE:      34259
cpu0->cpu0_L1D LOAD         ACCESS:    9205531 HIT:    9164749 MISS:      40782 MSHR_MERGE:      10385
cpu0->cpu0_L1D RFO          ACCESS:          0 HIT:          0 MISS:          0 MSHR_MERGE:          0
cpu0->cpu0_L1D PREFETCH     ACCESS:          0 HIT:          0 MISS:          0 MSHR_MERGE:          0
cpu0->cpu0_L1D WRITE        ACCESS:    5965718 HIT:    5927160 MISS:      38558 MSHR_MERGE:      23816
cpu0->cpu0_L1D TRANSLATION  ACCESS:      27556 HIT:        682 MISS:      26874 MSHR_MERGE:         58
cpu0->cpu0_L1D PREFETCH REQUESTED:          0 ISSUED:          0 USEFUL:          0 USELESS:          0
cpu0->cpu0_L1D AVERAGE MISS LATENCY: 92.23 cycles
cpu0->cpu0_ITLB TOTAL        ACCESS:    4950043 HIT:    4950043 MISS:          0 MSHR_MERGE:          0
cpu0->cpu0_ITLB LOAD         ACCESS:    4950043 HIT:    4950043 MISS:          0 MSHR_MERGE:          0
cpu0->cpu0_ITLB RFO          ACCESS:          0 HIT:          0 MISS:          0 MSHR_MERGE:          0
cpu0->cpu0_ITLB PREFETCH     ACCESS:          0 HIT:          0 MISS:          0 MSHR_MERGE:          0
cpu0->cpu0_ITLB WRITE        ACCESS:          0 HIT:          0 MISS:          0 MSHR_MERGE:          0
cpu0->cpu0_ITLB TRANSLATION  ACCESS:          0 HIT:          0 MISS:          0 MSHR_MERGE:          0
cpu0->cpu0_ITLB PREFETCH REQUESTED:          0 ISSUED:          0 USEFUL:          0 USELESS:          0
cpu0->cpu0_ITLB AVERAGE MISS LATENCY: - cycles
cpu0->cpu0_DTLB TOTAL        ACCESS:   14277852 HIT:   14251210 MISS:      26642 MSHR_MERGE:      12875
cpu0->cpu0_DTLB LOAD         ACCESS:   14277852 HIT:   14251210 MISS:      26642 MSHR_MERGE:      12875
cpu0->cpu0_DTLB RFO          ACCESS:          0 HIT:          0 MISS:          0 MSHR_MERGE:          0
cpu0->cpu0_DTLB PREFETCH     ACCESS:          0 HIT:          0 MISS:          0 MSHR_MERGE:          0
cpu0->cpu0_DTLB WRITE        ACCESS:          0 HIT:          0 MISS:          0 MSHR_MERGE:          0
cpu0->cpu0_DTLB TRANSLATION  ACCESS:          0 HIT:          0 MISS:          0 MSHR_MERGE:          0
cpu0->cpu0_DTLB PREFETCH REQUESTED:          0 ISSUED:          0 USEFUL:          0 USELESS:          0
cpu0->cpu0_DTLB AVERAGE MISS LATENCY: 567.9 cycles
cpu0->LLC TOTAL        ACCESS:      48897 HIT:      15106 MISS:      33791 MSHR_MERGE:          0
cpu0->LLC LOAD         ACCESS:      15031 HIT:        810 MISS:      14221 MSHR_MERGE:          0
cpu0->LLC RFO          ACCESS:        626 HIT:        284 MISS:        342 MSHR_MERGE:          0
cpu0->LLC PREFETCH     ACCESS:          0 HIT:          0 MISS:          0 MSHR_MERGE:          0
cpu0->LLC WRITE        ACCESS:      10004 HIT:       9891 MISS:        113 MSHR_MERGE:          0
cpu0->LLC TRANSLATION  ACCESS:      23236 HIT:       4121 MISS:      19115 MSHR_MERGE:          0
cpu0->LLC PREFETCH REQUESTED:          0 ISSUED:          0 USEFUL:          0 USELESS:          0
cpu0->LLC AVERAGE MISS LATENCY: 160 cycles

DRAM Statistics

Channel 0 RQ ROW_BUFFER_HIT:         14
  ROW_BUFFER_MISS:      33664
  AVG DBUS CONGESTED CYCLE: 4.601
Channel 0 WQ ROW_BUFFER_HIT:         18
  ROW_BUFFER_MISS:       1870
  FULL:          0
Channel 0 REFRESHES ISSUED:       3858
