[VMEM] WARNING: physical memory size is smaller than virtual memory size.

*** ChampSim Multicore Out-of-Order Simulator ***
Warmup Instructions: 10000000
Simulation Instructions: 50000000
Number of CPUs: 1
Page size: 4096

Off-chip DRAM Size: 16 GiB Channels: 1 Width: 64-bit Data Rate: 3205 MT/s
Heartbeat CPU 0 instructions: 10000002 cycles: 2820352 heartbeat IPC: 3.546 cumulative IPC: 3.546 (Simulation time: 00 hr 00 min 20 sec)
Warmup finished CPU 0 instructions: 10000002 cycles: 2820352 cumulative IPC: 3.546 (Simulation time: 00 hr 00 min 20 sec)
Warmup complete CPU 0 instructions: 10000002 cycles: 2820352 cumulative IPC: 3.546 (Simulation time: 00 hr 00 min 20 sec)
Heartbeat CPU 0 instructions: 20000003 cycles: 11066486 heartbeat IPC: 1.213 cumulative IPC: 1.213 (Simulation time: 00 hr 00 min 59 sec)
Heartbeat CPU 0 instructions: 30000007 cycles: 19347804 heartbeat IPC: 1.208 cumulative IPC: 1.21 (Simulation time: 00 hr 01 min 37 sec)
Heartbeat CPU 0 instructions: 40000011 cycles: 27625481 heartbeat IPC: 1.208 cumulative IPC: 1.209 (Simulation time: 00 hr 02 min 16 sec)
Heartbeat CPU 0 instructions: 50000015 cycles: 35705324 heartbeat IPC: 1.238 cumulative IPC: 1.216 (Simulation time: 00 hr 02 min 54 sec)
Simulation finished CPU 0 instructions: 50000004 cycles: 40954233 cumulative IPC: 1.221 (Simulation time: 00 hr 03 min 32 sec)
Simulation complete CPU 0 instructions: 50000004 cycles: 40954233 cumulative IPC: 1.221 (Simulation time: 00 hr 03 min 32 sec)

ChampSim completed all CPUs

=== Simulation ===
CPU 0 runs traces/628.pop2_s-17B.champsimtrace.xz

Region of Interest Statistics

CPU 0 cumulative IPC: 1.221 instructions: 50000004 cycles: 40954233
CPU 0 Branch Prediction Accuracy: 96.69% MPKI: 3.79 Average ROB Occupancy at Mispredict: 92.47
Branch type MPKI
BRANCH_DIRECT_JUMP: 0.05126
BRANCH_INDIRECT: 0.00164
BRANCH_CONDITIONAL: 3.737
BRANCH_DIRECT_CALL: 0
BRANCH_INDIRECT_CALL: 0
BRANCH_RETURN: 0

cpu0->cpu0_STLB TOTAL        ACCESS:      44011 HIT:      41547 MISS:       2464 MSHR_MERGE:          0
cpu0->cpu0_STLB LOAD         ACCESS:      44011 HIT:      41547 MISS:       2464 MSHR_MERGE:          0
cpu0->cpu0_STLB RFO          ACCESS:          0 HIT:          0 MISS:          0 MSHR_MERGE:          0
cpu0->cpu0_STLB PREFETCH     ACCESS:          0 HIT:          0 MISS:          0 MSHR_MERGE:          0
cpu0->cpu0_STLB WRITE        ACCESS:          0 HIT:          0 MISS:          0 MSHR_MERGE:          0
cpu0->cpu0_STLB TRANSLATION  ACCESS:          0 HIT:          0 MISS:          0 MSHR_MERGE:          0
cpu0->cpu0_STLB PREFETCH REQUESTED:          0 ISSUED:          0 USEFUL:          0 USELESS:          0
cpu0->cpu0_STLB AVERAGE MISS LATENCY: 744.1 cycles
cpu0->cpu0_L2C TOTAL        ACCESS:    1496668 HIT:    1046187 MISS:     450481 MSHR_MERGE:          0
cpu0->cpu0_L2C LOAD         ACCESS:     812649 HIT:     448707 MISS:     363942 MSHR_MERGE:          0
cpu0->cpu0_L2C RFO          ACCESS:     273806 HIT:     226834 MISS:      46972 MSHR_MERGE:          0
cpu0->cpu0_L2C PREFETCH     ACCESS:          0 HIT:          0 MISS:          0 MSHR_MERGE:          0
cpu0->cpu0_L2C WRITE        ACCESS:     404990 HIT:     370438 MISS:      34552 MSHR_MERGE:          0
cpu0->cpu0_L2C TRANSLATION  ACCESS:       5223 HIT:        208 MISS:       5015 MSHR_MERGE:          0
cpu0->cpu0_L2C PREFETCH REQUESTED:          0 ISSUED:          0 USEFUL:          0 USELESS:          0
cpu0->cpu0_L2C AVERAGE MISS LATENCY: 79.92 cycles
cpu0->cpu0_L1I TOTAL        ACCESS:    3844945 HIT:    3737293 MISS:     107652 MSHR_MERGE:      48523
cpu0->cpu0_L1I LOAD         ACCESS:    3844945 HIT:    3737293 MISS:     107652 MSHR_MERGE:      48523
cpu0->cpu0_L1I RFO          ACCESS:          0 HIT:          0 MISS:          0 MSHR_MERGE:          0
cpu0->cpu0_L1I PREFETCH     ACCESS:          0 HIT:          0 MISS:          0 MSHR_MERGE:          0
cpu0->cpu0_L1I WRITE        ACCESS:          0 HIT:          0 MISS:          0 MSHR_MERGE:          0
cpu0->cpu0_L1I TRANSLATION  ACCESS:          0 HIT:          0 MISS:          0 MSHR_MERGE:          0
cpu0->cpu0_L1I PREFETCH REQUESTED:          0 ISSUED:          0 USEFUL:          0 USELESS:          0
cpu0->cpu0_L1I AVERAGE MISS LATENCY: 20.26 cycles
cpu0->cpu0_L1D TOTAL        ACCESS:   13018306 HIT:   10718703 MISS:    2299603 MSHR_MERGE:    1267048
cpu0->cpu0_L1D LOAD         ACCESS:    9225019 HIT:    7796600 MISS:    1428419 MSHR_MERGE:     674896
cpu0->cpu0_L1D RFO          ACCESS:          0 HIT:          0 MISS:          0 MSHR_MERGE:          0
cpu0->cpu0_L1D PREFETCH     ACCESS:          0 HIT:          0 MISS:          0 MSHR_MERGE:          0
cpu0->cpu0_L1D WRITE        ACCESS:    3787536 HIT:    2921730 MISS:     865806 MSHR_MERGE:     591997
cpu0->cpu0_L1D TRANSLATION  ACCESS:       5751 HIT:        373 MISS:       5378 MSHR_MERGE:        155
cpu0->cpu0_L1D PREFETCH REQUESTED:          0 ISSUED:          0 USEFUL:          0 USELESS:          0
cpu0->cpu0_L1D AVERAGE MISS LATENCY: 42.44 cycles
cpu0->cpu0_ITLB TOTAL        ACCESS:    3133114 HIT:    3126836 MISS:       6278 MSHR_MERGE:       3799
cpu0->cpu0_ITLB LOAD         ACCESS:    3133114 HIT:    3126836 MISS:       6278 MSHR_MERGE:       3799
cpu0->cpu0_ITLB RFO          ACCESS:          0 HIT:          0 MISS:          0 MSHR_MERGE:          0
cpu0->cpu0_ITLB PREFETCH     ACCESS:          0 HIT:          0 MISS:          0 MSHR_MERGE:          0
cpu0->cpu0_ITLB WRITE        ACCESS:          0 HIT:          0 MISS:          0 MSHR_MERGE:          0
cpu0->cpu0_ITLB TRANSLATION  ACCESS:          0 HIT:          0 MISS:          0 MSHR_MERGE:          0
cpu0->cpu0_ITLB PREFETCH REQUESTED:          0 ISSUED:          0 USEFUL:          0 USELESS:          0
cpu0->cpu0_ITLB AVERAGE MISS LATENCY: 5 cycles
cpu0->cpu0_DTLB TOTAL        ACCESS:   12526944 HIT:   12455562 MISS:      71382 MSHR_MERGE:      29850
cpu0->cpu0_DTLB LOAD         ACCESS:   12526944 HIT:   12455562 MISS:      71382 MSHR_MERGE:      29850
cpu0->cpu0_DTLB RFO          ACCESS:          0 HIT:          0 MISS:          0 MSHR_MERGE:          0
cpu0->cpu0_DTLB PREFETCH     ACCESS:          0 HIT:          0 MISS:          0 MSHR_MERGE:          0
cpu0->cpu0_DTLB WRITE        ACCESS:          0 HIT:          0 MISS:          0 MSHR_MERGE:          0
cpu0->cpu0_DTLB TRANSLATION  ACCESS:          0 HIT:          0 MISS:          0 MSHR_MERGE:          0
cpu0->cpu0_DTLB PREFETCH REQUESTED:          0 ISSUED:          0 USEFUL:          0 USELESS:          0
cpu0->cpu0_DTLB AVERAGE MISS LATENCY: 49.21 cycles
cpu0->LLC TOTAL        ACCESS:     515618 HIT:     359090 MISS:     156528 MSHR_MERGE:          0
cpu0->LLC LOAD         ACCESS:     363942 HIT:     223812 MISS:     140130 MSHR_MERGE:          0
cpu0->LLC RFO          ACCESS:      46972 HIT:      36153 MISS:      10819 MSHR_MERGE:          0
cpu0->LLC PREFETCH     ACCESS:          0 HIT:          0 MISS:          0 MSHR_MERGE:          0
cpu0->LLC WRITE        ACCESS:      99689 HIT:      97607 MISS:       2082 MSHR_MERGE:          0
cpu0->LLC TRANSLATION  ACCESS:       5015 HIT:       1518 MISS:       3497 MSHR_MERGE:          0
cpu0->LLC PREFETCH REQUESTED:          0 ISSUED:          0 USEFUL:          0 USELESS:          0
cpu0->LLC AVERAGE MISS LATENCY: 188.4 cycles

DRAM Statistics

Channel 0 RQ ROW_BUFFER_HIT:       4267
  ROW_BUFFER_MISS:     150179
  AVG DBUS CONGESTED CYCLE: 15.86
Channel 0 WQ ROW_BUFFER_HIT:      12273
  ROW_BUFFER_MISS:      33236
  FULL:          0
Channel 0 REFRESHES ISSUED:       3412
