[VMEM] WARNING: physical memory size is smaller than virtual memory size.

*** ChampSim Multicore Out-of-Order Simulator ***
Warmup Instructions: 10000000
Simulation Instructions: 50000000
Number of CPUs: 1
Page size: 4096

Off-chip DRAM Size: 16 GiB Channels: 1 Width: 64-bit Data Rate: 3205 MT/s
Heartbeat CPU 0 instructions: 10000000 cycles: 2973839 heartbeat IPC: 3.363 cumulative IPC: 3.363 (Simulation time: 00 hr 00 min 23 sec)
Warmup finished CPU 0 instructions: 10000000 cycles: 2973839 cumulative IPC: 3.363 (Simulation time: 00 hr 00 min 23 sec)
Warmup complete CPU 0 instructions: 10000000 cycles: 2973839 cumulative IPC: 3.363 (Simulation time: 00 hr 00 min 23 sec)
Heartbeat CPU 0 instructions: 20000002 cycles: 28204174 heartbeat IPC: 0.3963 cumulative IPC: 0.3963 (Simulation time: 00 hr 02 min 37 sec)
Heartbeat CPU 0 instructions: 30000002 cycles: 53452796 heartbeat IPC: 0.3961 cumulative IPC: 0.3962 (Simulation time: 00 hr 04 min 51 sec)
Heartbeat CPU 0 instructions: 40000006 cycles: 78679704 heartbeat IPC: 0.3964 cumulative IPC: 0.3963 (Simulation time: 00 hr 07 min 05 sec)
Heartbeat CPU 0 instructions: 50000006 cycles: 103926513 heartbeat IPC: 0.3961 cumulative IPC: 0.3962 (Simulation time: 00 hr 09 min 20 sec)
Simulation finished CPU 0 instructions: 50000004 cycles: 126198175 cumulative IPC: 0.3962 (Simulation time: 00 hr 11 min 34 sec)
Simulation complete CPU 0 instructions: 50000004 cycles: 126198175 cumulative IPC: 0.3962 (Simulation time: 00 hr 11 min 34 sec)

ChampSim completed all CPUs

=== Simulation ===
CPU 0 runs traces/649.fotonik3d_s-1176B.champsimtrace.xz

Region of Interest Statistics

CPU 0 cumulative IPC: 0.3962 instructions: 50000004 cycles: 126198175
CPU 0 Branch Prediction Accuracy: 99.98% MPKI: 0.00438 Average ROB Occupancy at Mispredict: 352
Branch type MPKI
BRANCH_DIRECT_JUMP: 0
BRANCH_INDIRECT: 0
BRANCH_CONDITIONAL: 0.00438
BRANCH_DIRECT_CALL: 0
BRANCH_INDIRECT_CALL: 0
BRANCH_RETURN: 0

cpu0->cpu0_STLB TOTAL        ACCESS:      11681 HIT:       4818 MISS:       6863 MSHR_MERGE:          0
cpu0->cpu0_STLB LOAD         ACCESS:      11681 HIT:       4818 MISS:       6863 MSHR_MERGE:          0
cpu0->cpu0_STLB RFO          ACCESS:          0 HIT:          0 MISS:          0 MSHR_MERGE:          0
cpu0->cpu0_STLB PREFETCH     ACCESS:          0 HIT:          0 MISS:          0 MSHR_MERGE:          0
cpu0->cpu0_STLB WRITE        ACCESS:          0 HIT:          0 MISS:          0 MSHR_MERGE:          0
cpu0->cpu0_STLB TRANSLATION  ACCESS:          0 HIT:          0 MISS:          0 MSHR_MERGE:          0
cpu0->cpu0_STLB PREFETCH REQUESTED:          0 ISSUED:          0 USEFUL:          0 USELESS:          0
cpu0->cpu0_STLB AVERAGE MISS LATENCY: 664.4 cycles
cpu0->cpu0_L2C TOTAL        ACCESS:    1108870 HIT:     372981 MISS:     735889 MSHR_MERGE:          0
cpu0->cpu0_L2C LOAD         ACCESS:     660914 HIT:     213066 MISS:     447848 MSHR_MERGE:          0
cpu0->cpu0_L2C RFO          ACCESS:        763 HIT:        763 MISS:          0 MSHR_MERGE:          0
cpu0->cpu0_L2C PREFETCH     ACCESS:          0 HIT:          0 MISS:          0 MSHR_MERGE:          0
cpu0->cpu0_L2C WRITE        ACCESS:     439250 HIT:     159132 MISS:     280118 MSHR_MERGE:          0
cpu0->cpu0_L2C TRANSLATION  ACCESS:       7943 HIT:         20 MISS:       7923 MSHR_MERGE:          0
cpu0->cpu0_L2C PREFETCH REQUESTED:          0 ISSUED:          0 USEFUL:          0 USELESS:          0
cpu0->cpu0_L2C AVERAGE MISS LATENCY: 145.4 cycles
cpu0->cpu0_L1I TOTAL        ACCESS:    8870604 HIT:    8870604 MISS:          0 MSHR_MERGE:          0
cpu0->cpu0_L1I LOAD         ACCESS:    8870604 HIT:    8870604 MISS:          0 MSHR_MERGE:          0
cpu0->cpu0_L1I RFO          ACCESS:          0 HIT:          0 MISS:          0 MSHR_MERGE:          0
cpu0->cpu0_L1I PREFETCH     ACCESS:          0 HIT:          0 MISS:          0 MSHR_MERGE:          0
cpu0->cpu0_L1I WRITE        ACCESS:          0 HIT:          0 MISS:          0 MSHR_MERGE:          0
cpu0->cpu0_L1I TRANSLATION  ACCESS:          0 HIT:          0 MISS:          0 MSHR_MERGE:          0
cpu0->cpu0_L1I PREFETCH REQUESTED:          0 ISSUED:          0 USEFUL:          0 USELESS:          0
cpu0->cpu0_L1I AVERAGE MISS LATENCY: - cycles
cpu0->cpu0_L1D TOTAL        ACCESS:   15372399 HIT:   12833274 MISS:    2539125 MSHR_MERGE:    1869505
cpu0->cpu0_L1D LOAD         ACCESS:   11848384 HIT:    9319664 MISS:    2528720 MSHR_MERGE:    1867806
cpu0->cpu0_L1D RFO          ACCESS:          0 HIT:          0 MISS:          0 MSHR_MERGE:          0
cpu0->cpu0_L1D PREFETCH     ACCESS:          0 HIT:          0 MISS:          0 MSHR_MERGE:          0
cpu0->cpu0_L1D WRITE        ACCESS:    3510267 HIT:    3507805 MISS:       2462 MSHR_MERGE:       1699
cpu0->cpu0_L1D TRANSLATION  ACCESS:      13748 HIT:       5805 MISS:       7943 MSHR_MERGE:          0
cpu0->cpu0_L1D PREFETCH REQUESTED:          0 ISSUED:          0 USEFUL:          0 USELESS:          0
cpu0->cpu0_L1D AVERAGE MISS LATENCY: 166.8 cycles
cpu0->cpu0_ITLB TOTAL        ACCESS:    7120477 HIT:    7120477 MISS:          0 MSHR_MERGE:          0
cpu0->cpu0_ITLB LOAD         ACCESS:    7120477 HIT:    7120477 MISS:          0 MSHR_MERGE:          0
cpu0->cpu0_ITLB RFO          ACCESS:          0 HIT:          0 MISS:          0 MSHR_MERGE:          0
cpu0->cpu0_ITLB PREFETCH     ACCESS:          0 HIT:          0 MISS:          0 MSHR_MERGE:          0
cpu0->cpu0_ITLB WRITE        ACCESS:          0 HIT:          0 MISS:          0 MSHR_MERGE:          0
cpu0->cpu0_ITLB TRANSLATION  ACCESS:          0 HIT:          0 MISS:          0 MSHR_MERGE:          0
cpu0->cpu0_ITLB PREFETCH REQUESTED:          0 ISSUED:          0 USEFUL:          0 USELESS:          0
cpu0->cpu0_ITLB AVERAGE MISS LATENCY: - cycles
cpu0->cpu0_DTLB TOTAL        ACCESS:   14151833 HIT:   14112217 MISS:      39616 MSHR_MERGE:      27935
cpu0->cpu0_DTLB LOAD         ACCESS:   14151833 HIT:   14112217 MISS:      39616 MSHR_MERGE:      27935
cpu0->cpu0_DTLB RFO          ACCESS:          0 HIT:          0 MISS:          0 MSHR_MERGE:          0
cpu0->cpu0_DTLB PREFETCH     ACCESS:          0 HIT:          0 MISS:          0 MSHR_MERGE:          0
cpu0->cpu0_DTLB WRITE        ACCESS:          0 HIT:          0 MISS:          0 MSHR_MERGE:          0
cpu0->cpu0_DTLB TRANSLATION  ACCESS:          0 HIT:          0 MISS:          0 MSHR_MERGE:          0
cpu0->cpu0_DTLB PREFETCH REQUESTED:          0 ISSUED:          0 USEFUL:          0 USELESS:          0
cpu0->cpu0_DTLB AVERAGE MISS LATENCY: 396 cycles
cpu0->LLC TOTAL        ACCESS:     894296 HIT:     447942 MISS:     446354 MSHR_MERGE:          0
cpu0->LLC LOAD         ACCESS:     447848 HIT:       9398 MISS:     438450 MSHR_MERGE:          0
cpu0->LLC RFO          ACCESS:          0 HIT:          0 MISS:          0 MSHR_MERGE:          0
cpu0->LLC PREFETCH     ACCESS:          0 HIT:          0 MISS:          0 MSHR_MERGE:          0
cpu0->LLC WRITE        ACCESS:     438525 HIT:     438371 MISS:        154 MSHR_MERGE:          0
cpu0->LLC TRANSLATION  ACCESS:       7923 HIT:        173 MISS:       7750 MSHR_MERGE:          0
cpu0->LLC PREFETCH REQUESTED:          0 ISSUED:          0 USEFUL:          0 USELESS:          0
cpu0->LLC AVERAGE MISS LATENCY: 220.9 cycles

DRAM Statistics

Channel 0 RQ ROW_BUFFER_HIT:       2616
  ROW_BUFFER_MISS:     443584
  AVG DBUS CONGESTED CYCLE: 9.823
Channel 0 WQ ROW_BUFFER_HIT:     178441
  ROW_BUFFER_MISS:     259819
  FULL:          0
Channel 0 REFRESHES ISSUED:      10517
