[VMEM] WARNING: physical memory size is smaller than virtual memory size.

*** ChampSim Multicore Out-of-Order Simulator ***
Warmup Instructions: 10000000
Simulation Instructions: 50000000
Number of CPUs: 1
Page size: 4096

Off-chip DRAM Size: 16 GiB Channels: 1 Width: 64-bit Data Rate: 3205 MT/s
Heartbeat CPU 0 instructions: 10000001 cycles: 2561460 heartbeat IPC: 3.904 cumulative IPC: 3.904 (Simulation time: 00 hr 00 min 20 sec)
Warmup finished CPU 0 instructions: 10000001 cycles: 2561460 cumulative IPC: 3.904 (Simulation time: 00 hr 00 min 20 sec)
Warmup complete CPU 0 instructions: 10000001 cycles: 2561460 cumulative IPC: 3.904 (Simulation time: 00 hr 00 min 20 sec)
Heartbeat CPU 0 instructions: 20000002 cycles: 9795645 heartbeat IPC: 1.382 cumulative IPC: 1.382 (Simulation time: 00 hr 00 min 51 sec)
Heartbeat CPU 0 instructions: 30000002 cycles: 17071935 heartbeat IPC: 1.374 cumulative IPC: 1.378 (Simulation time: 00 hr 01 min 23 sec)
Heartbeat CPU 0 instructions: 40000003 cycles: 24260220 heartbeat IPC: 1.391 cumulative IPC: 1.383 (Simulation time: 00 hr 01 min 55 sec)
Heartbeat CPU 0 instructions: 50000003 cycles: 31513858 heartbeat IPC: 1.379 cumulative IPC: 1.382 (Simulation time: 00 hr 02 min 26 sec)
Simulation finished CPU 0 instructions: 50000000 cycles: 36259989 cumulative IPC: 1.379 (Simulation time: 00 hr 02 min 58 sec)
Simulation complete CPU 0 instructions: 50000000 cycles: 36259989 cumulative IPC: 1.379 (Simulation time: 00 hr 02 min 58 sec)

ChampSim completed all CPUs

=== Simulation ===
CPU 0 runs traces/644.nab_s-12459B.champsimtrace.xz

Region of Interest Statistics

CPU 0 cumulative IPC: 1.379 instructions: 50000000 cycles: 36259989
CPU 0 Branch Prediction Accuracy: 90.93% MPKI: 12.97 Average ROB Occupancy at Mispredict: 41.2
Branch type MPKI
BRANCH_DIRECT_JUMP: 0.2759
BRANCH_INDIRECT: 0
BRANCH_CONDITIONAL: 12.69
BRANCH_DIRECT_CALL: 0
BRANCH_INDIRECT_CALL: 0
BRANCH_RETURN: 0

cpu0->cpu0_STLB TOTAL        ACCESS:      11013 HIT:      10873 MISS:        140 MSHR_MERGE:          0
cpu0->cpu0_STLB LOAD         ACCESS:      11013 HIT:      10873 MISS:        140 MSHR_MERGE:          0
cpu0->cpu0_STLB RFO          ACCESS:          0 HIT:          0 MISS:          0 MSHR_MERGE:          0
cpu0->cpu0_STLB PREFETCH     ACCESS:          0 HIT:          0 MISS:          0 MSHR_MERGE:          0
cpu0->cpu0_STLB WRITE        ACCESS:          0 HIT:          0 MISS:          0 MSHR_MERGE:          0
cpu0->cpu0_STLB TRANSLATION  ACCESS:          0 HIT:          0 MISS:          0 MSHR_MERGE:          0
cpu0->cpu0_STLB PREFETCH REQUESTED:          0 ISSUED:          0 USEFUL:          0 USELESS:          0
cpu0->cpu0_STLB AVERAGE MISS LATENCY: 705.2 cycles
cpu0->cpu0_L2C TOTAL        ACCESS:     332724 HIT:     294604 MISS:      38120 MSHR_MERGE:          0
cpu0->cpu0_L2C LOAD         ACCESS:     291488 HIT:     262271 MISS:      29217 MSHR_MERGE:          0
cpu0->cpu0_L2C RFO          ACCESS:      16404 HIT:       8767 MISS:       7637 MSHR_MERGE:          0
cpu0->cpu0_L2C PREFETCH     ACCESS:          0 HIT:          0 MISS:          0 MSHR_MERGE:          0
cpu0->cpu0_L2C WRITE        ACCESS:      24611 HIT:      23554 MISS:       1057 MSHR_MERGE:          0
cpu0->cpu0_L2C TRANSLATION  ACCESS:        221 HIT:         12 MISS:        209 MSHR_MERGE:          0
cpu0->cpu0_L2C PREFETCH REQUESTED:          0 ISSUED:          0 USEFUL:          0 USELESS:          0
cpu0->cpu0_L2C AVERAGE MISS LATENCY: 55.15 cycles
cpu0->cpu0_L1I TOTAL        ACCESS:     127641 HIT:     127641 MISS:          0 MSHR_MERGE:          0
cpu0->cpu0_L1I LOAD         ACCESS:     127641 HIT:     127641 MISS:          0 MSHR_MERGE:          0
cpu0->cpu0_L1I RFO          ACCESS:          0 HIT:          0 MISS:          0 MSHR_MERGE:          0
cpu0->cpu0_L1I PREFETCH     ACCESS:          0 HIT:          0 MISS:          0 MSHR_MERGE:          0
cpu0->cpu0_L1I WRITE        ACCESS:          0 HIT:          0 MISS:          0 MSHR_MERGE:          0
cpu0->cpu0_L1I TRANSLATION  ACCESS:          0 HIT:          0 MISS:          0 MSHR_MERGE:          0
cpu0->cpu0_L1I PREFETCH REQUESTED:          0 ISSUED:          0 USEFUL:          0 USELESS:          0
cpu0->cpu0_L1I AVERAGE MISS LATENCY: - cycles
cpu0->cpu0_L1D TOTAL        ACCESS:   13949160 HIT:   13462887 MISS:     486273 MSHR_MERGE:     178160
cpu0->cpu0_L1D LOAD         ACCESS:    8942904 HIT:    8590383 MISS:     352521 MSHR_MERGE:      61033
cpu0->cpu0_L1D RFO          ACCESS:          0 HIT:          0 MISS:          0 MSHR_MERGE:          0
cpu0->cpu0_L1D PREFETCH     ACCESS:          0 HIT:          0 MISS:          0 MSHR_MERGE:          0
cpu0->cpu0_L1D WRITE        ACCESS:    5005976 HIT:    4872447 MISS:     133529 MSHR_MERGE:     117125
cpu0->cpu0_L1D TRANSLATION  ACCESS:        280 HIT:         57 MISS:        223 MSHR_MERGE:          2
cpu0->cpu0_L1D PREFETCH REQUESTED:          0 ISSUED:          0 USEFUL:          0 USELESS:          0
cpu0->cpu0_L1D AVERAGE MISS LATENCY: 14.93 cycles
cpu0->cpu0_ITLB TOTAL        ACCESS:     110150 HIT:     110150 MISS:          0 MSHR_MERGE:          0
cpu0->cpu0_ITLB LOAD         ACCESS:     110150 HIT:     110150 MISS:          0 MSHR_MERGE:          0
cpu0->cpu0_ITLB RFO          ACCESS:          0 HIT:          0 MISS:          0 MSHR_MERGE:          0
cpu0->cpu0_ITLB PREFETCH     ACCESS:          0 HIT:          0 MISS:          0 MSHR_MERGE:          0
cpu0->cpu0_ITLB WRITE        ACCESS:          0 HIT:          0 MISS:          0 MSHR_MERGE:          0
cpu0->cpu0_ITLB TRANSLATION  ACCESS:          0 HIT:          0 MISS:          0 MSHR_MERGE:          0
cpu0->cpu0_ITLB PREFETCH REQUESTED:          0 ISSUED:          0 USEFUL:          0 USELESS:          0
cpu0->cpu0_ITLB AVERAGE MISS LATENCY: - cycles
cpu0->cpu0_DTLB TOTAL        ACCESS:   13436348 HIT:   13422032 MISS:      14316 MSHR_MERGE:       3303
cpu0->cpu0_DTLB LOAD         ACCESS:   13436348 HIT:   13422032 MISS:      14316 MSHR_MERGE:       3303
cpu0->cpu0_DTLB RFO          ACCESS:          0 HIT:          0 MISS:          0 MSHR_MERGE:          0
cpu0->cpu0_DTLB PREFETCH     ACCESS:          0 HIT:          0 MISS:          0 MSHR_MERGE:          0
cpu0->cpu0_DTLB WRITE        ACCESS:          0 HIT:          0 MISS:          0 MSHR_MERGE:          0
cpu0->cpu0_DTLB TRANSLATION  ACCESS:          0 HIT:          0 MISS:          0 MSHR_MERGE:          0
cpu0->cpu0_DTLB PREFETCH REQUESTED:          0 ISSUED:          0 USEFUL:          0 USELESS:          0
cpu0->cpu0_DTLB AVERAGE MISS LATENCY: 13.98 cycles
cpu0->LLC TOTAL        ACCESS:      44209 HIT:      34812 MISS:       9397 MSHR_MERGE:          0
cpu0->LLC LOAD         ACCESS:      29217 HIT:      27581 MISS:       1636 MSHR_MERGE:          0
cpu0->LLC RFO          ACCESS:       7637 HIT:         63 MISS:       7574 MSHR_MERGE:          0
cpu0->LLC PREFETCH     ACCESS:          0 HIT:          0 MISS:          0 MSHR_MERGE:          0
cpu0->LLC WRITE        ACCESS:       7146 HIT:       7146 MISS:          0 MSHR_MERGE:          0
cpu0->LLC TRANSLATION  ACCESS:        209 HIT:         22 MISS:        187 MSHR_MERGE:          0
cpu0->LLC PREFETCH REQUESTED:          0 ISSUED:          0 USEFUL:          0 USELESS:          0
cpu0->LLC AVERAGE MISS LATENCY: 163.1 cycles

DRAM Statistics

Channel 0 RQ ROW_BUFFER_HIT:       2528
  ROW_BUFFER_MISS:       6869
  AVG DBUS CONGESTED CYCLE: 2.738
Channel 0 WQ ROW_BUFFER_HIT:          0
  ROW_BUFFER_MISS:          0
  FULL:          0
Channel 0 REFRESHES ISSUED:       3022
