[VMEM] WARNING: physical memory size is smaller than virtual memory size.

*** ChampSim Multicore Out-of-Order Simulator ***
Warmup Instructions: 10000000
Simulation Instructions: 50000000
Number of CPUs: 1
Page size: 4096

Off-chip DRAM Size: 16 GiB Channels: 1 Width: 64-bit Data Rate: 3205 MT/s
Heartbeat CPU 0 instructions: 10000004 cycles: 4019707 heartbeat IPC: 2.488 cumulative IPC: 2.488 (Simulation time: 00 hr 00 min 31 sec)
Warmup finished CPU 0 instructions: 10000004 cycles: 4019707 cumulative IPC: 2.488 (Simulation time: 00 hr 00 min 31 sec)
Warmup complete CPU 0 instructions: 10000004 cycles: 4019707 cumulative IPC: 2.488 (Simulation time: 00 hr 00 min 31 sec)
Heartbeat CPU 0 instructions: 20000006 cycles: 44846800 heartbeat IPC: 0.2449 cumulative IPC: 0.2449 (Simulation time: 00 hr 04 min 05 sec)
Heartbeat CPU 0 instructions: 30000007 cycles: 85516410 heartbeat IPC: 0.2459 cumulative IPC: 0.2454 (Simulation time: 00 hr 07 min 39 sec)
Heartbeat CPU 0 instructions: 40000008 cycles: 127141529 heartbeat IPC: 0.2402 cumulative IPC: 0.2437 (Simulation time: 00 hr 11 min 17 sec)
Heartbeat CPU 0 instructions: 50000011 cycles: 167889634 heartbeat IPC: 0.2454 cumulative IPC: 0.2441 (Simulation time: 00 hr 14 min 51 sec)
Simulation finished CPU 0 instructions: 50000004 cycles: 204650458 cumulative IPC: 0.2443 (Simulation time: 00 hr 18 min 26 sec)
Simulation complete CPU 0 instructions: 50000004 cycles: 204650458 cumulative IPC: 0.2443 (Simulation time: 00 hr 18 min 26 sec)

ChampSim completed all CPUs

=== Simulation ===
CPU 0 runs traces/605.mcf_s-1536B.champsimtrace.xz

Region of Interest Statistics

CPU 0 cumulative IPC: 0.2443 instructions: 50000004 cycles: 204650458
CPU 0 Branch Prediction Accuracy: 99.97% MPKI: 0.04406 Average ROB Occupancy at Mispredict: 176.3
Branch type MPKI
BRANCH_DIRECT_JUMP: 0
BRANCH_INDIRECT: 0
BRANCH_CONDITIONAL: 0.04406
BRANCH_DIRECT_CALL: 0
BRANCH_INDIRECT_CALL: 0
BRANCH_RETURN: 0

cpu0->cpu0_STLB TOTAL        ACCESS:    1310392 HIT:     188958 MISS:    1121434 MSHR_MERGE:          0
cpu0->cpu0_STLB LOAD         ACCESS:    1310392 HIT:     188958 MISS:    1121434 MSHR_MERGE:          0
cpu0->cpu0_STLB RFO          ACCESS:          0 HIT:          0 MISS:          0 MSHR_MERGE:          0
cpu0->cpu0_STLB PREFETCH     ACCESS:          0 HIT:          0 MISS:          0 MSHR_MERGE:          0
cpu0->cpu0_STLB WRITE        ACCESS:          0 HIT:          0 MISS:          0 MSHR_MERGE:          0
cpu0->cpu0_STLB TRANSLATION  ACCESS:          0 HIT:          0 MISS:          0 MSHR_MERGE:          0
cpu0->cpu0_STLB PREFETCH REQUESTED:          0 ISSUED:          0 USEFUL:          0 USELESS:          0
cpu0->cpu0_STLB AVERAGE MISS LATENCY: 71.21 cycles
cpu0->cpu0_L2C TOTAL        ACCESS:    5948950 HIT:    2656175 MISS:    3292775 MSHR_MERGE:          0
cpu0->cpu0_L2C LOAD         ACCESS:    2443556 HIT:     857500 MISS:    1586056 MSHR_MERGE:          0
cpu0->cpu0_L2C RFO          ACCESS:     143205 HIT:       9047 MISS:     134158 MSHR_MERGE:          0
cpu0->cpu0_L2C PREFETCH     ACCESS:          0 HIT:          0 MISS:          0 MSHR_MERGE:          0
cpu0->cpu0_L2C WRITE        ACCESS:    1113256 HIT:     652894 MISS:     460362 MSHR_MERGE:          0
cpu0->cpu0_L2C TRANSLATION  ACCESS:    2248933 HIT:    1136734 MISS:    1112199 MSHR_MERGE:          0
cpu0->cpu0_L2C PREFETCH REQUESTED:          0 ISSUED:          0 USEFUL:          0 USELESS:          0
cpu0->cpu0_L2C AVERAGE MISS LATENCY: 110.2 cycles
cpu0->cpu0_L1I TOTAL        ACCESS:   11087554 HIT:   11087554 MISS:          0 MSHR_MERGE:          0
cpu0->cpu0_L1I LOAD         ACCESS:   11087554 HIT:   11087554 MISS:          0 MSHR_MERGE:          0
cpu0->cpu0_L1I RFO          ACCESS:          0 HIT:          0 MISS:          0 MSHR_MERGE:          0
cpu0->cpu0_L1I PREFETCH     ACCESS:          0 HIT:          0 MISS:          0 MSHR_MERGE:          0
cpu0->cpu0_L1I WRITE        ACCESS:          0 HIT:          0 MISS:          0 MSHR_MERGE:          0
cpu0->cpu0_L1I TRANSLATION  ACCESS:          0 HIT:          0 MISS:          0 MSHR_MERGE:          0
cpu0->cpu0_L1I PREFETCH REQUESTED:          0 ISSUED:          0 USEFUL:          0 USELESS:          0
cpu0->cpu0_L1I AVERAGE MISS LATENCY: - cycles
cpu0->cpu0_L1D TOTAL        ACCESS:   14560320 HIT:    8073762 MISS:    6486558 MSHR_MERGE:    1650797
cpu0->cpu0_L1D LOAD         ACCESS:    9942360 HIT:    5854566 MISS:    4087794 MSHR_MERGE:    1644238
cpu0->cpu0_L1D RFO          ACCESS:          0 HIT:          0 MISS:          0 MSHR_MERGE:          0
cpu0->cpu0_L1D PREFETCH     ACCESS:          0 HIT:          0 MISS:          0 MSHR_MERGE:          0
cpu0->cpu0_L1D WRITE        ACCESS:    2217254 HIT:    2073910 MISS:     143344 MSHR_MERGE:         72
cpu0->cpu0_L1D TRANSLATION  ACCESS:    2400706 HIT:     145286 MISS:    2255420 MSHR_MERGE:       6487
cpu0->cpu0_L1D PREFETCH REQUESTED:          0 ISSUED:          0 USEFUL:          0 USELESS:          0
cpu0->cpu0_L1D AVERAGE MISS LATENCY: 83.39 cycles
cpu0->cpu0_ITLB TOTAL        ACCESS:    9936255 HIT:    9936255 MISS:          0 MSHR_MERGE:          0
cpu0->cpu0_ITLB LOAD         ACCESS:    9936255 HIT:    9936255 MISS:          0 MSHR_MERGE:          0
cpu0->cpu0_ITLB RFO          ACCESS:          0 HIT:          0 MISS:          0 MSHR_MERGE:          0
cpu0->cpu0_ITLB PREFETCH     ACCESS:          0 HIT:          0 MISS:          0 MSHR_MERGE:          0
cpu0->cpu0_ITLB WRITE        ACCESS:          0 HIT:          0 MISS:          0 MSHR_MERGE:          0
cpu0->cpu0_ITLB TRANSLATION  ACCESS:          0 HIT:          0 MISS:          0 MSHR_MERGE:          0
cpu0->cpu0_ITLB PREFETCH REQUESTED:          0 ISSUED:          0 USEFUL:          0 USELESS:          0
cpu0->cpu0_ITLB AVERAGE MISS LATENCY: - cycles
cpu0->cpu0_DTLB TOTAL        ACCESS:   12077382 HIT:    8798819 MISS:    3278563 MSHR_MERGE:    1968171
cpu0->cpu0_DTLB LOAD         ACCESS:   12077382 HIT:    8798819 MISS:    3278563 MSHR_MERGE:    1968171
cpu0->cpu0_DTLB RFO          ACCESS:          0 HIT:          0 MISS:          0 MSHR_MERGE:          0
cpu0->cpu0_DTLB PREFETCH     ACCESS:          0 HIT:          0 MISS:          0 MSHR_MERGE:          0
cpu0->cpu0_DTLB WRITE        ACCESS:          0 HIT:          0 MISS:          0 MSHR_MERGE:          0
cpu0->cpu0_DTLB TRANSLATION  ACCESS:          0 HIT:          0 MISS:          0 MSHR_MERGE:          0
cpu0->cpu0_DTLB PREFETCH REQUESTED:          0 ISSUED:          0 USEFUL:          0 USELESS:          0
cpu0->cpu0_DTLB AVERAGE MISS LATENCY: 66.8 cycles
cpu0->LLC TOTAL        ACCESS:    3941111 HIT:    2542381 MISS:    1398730 MSHR_MERGE:          0
cpu0->LLC LOAD         ACCESS:    1586056 HIT:     315354 MISS:    1270702 MSHR_MERGE:          0
cpu0->LLC RFO          ACCESS:     134158 HIT:     134150 MISS:          8 MSHR_MERGE:          0
cpu0->LLC PREFETCH     ACCESS:          0 HIT:          0 MISS:          0 MSHR_MERGE:          0
cpu0->LLC WRITE        ACCESS:    1108698 HIT:    1062852 MISS:      45846 MSHR_MERGE:          0
cpu0->LLC TRANSLATION  ACCESS:    1112199 HIT:    1030025 MISS:      82174 MSHR_MERGE:          0
cpu0->LLC PREFETCH REQUESTED:          0 ISSUED:          0 USEFUL:          0 USELESS:          0
cpu0->LLC AVERAGE MISS LATENCY: 227.1 cycles

DRAM Statistics

Channel 0 RQ ROW_BUFFER_HIT:        426
  ROW_BUFFER_MISS:    1352459
  AVG DBUS CONGESTED CYCLE: 5.72
Channel 0 WQ ROW_BUFFER_HIT:     361945
  ROW_BUFFER_MISS:     745829
  FULL:          0
Channel 0 REFRESHES ISSUED:      17055
