[VMEM] WARNING: physical memory size is smaller than virtual memory size.

*** ChampSim Multicore Out-of-Order Simulator ***
Warmup Instructions: 10000000
Simulation Instructions: 50000000
Number of CPUs: 1
Page size: 4096

Off-chip DRAM Size: 16 GiB Channels: 1 Width: 64-bit Data Rate: 3205 MT/s
Heartbeat CPU 0 instructions: 10000001 cycles: 2524987 heartbeat IPC: 3.96 cumulative IPC: 3.96 (Simulation time: 00 hr 00 min 23 sec)
Warmup finished CPU 0 instructions: 10000001 cycles: 2524987 cumulative IPC: 3.96 (Simulation time: 00 hr 00 min 23 sec)
Warmup complete CPU 0 instructions: 10000001 cycles: 2524987 cumulative IPC: 3.96 (Simulation time: 00 hr 00 min 23 sec)
Heartbeat CPU 0 instructions: 20000001 cycles: 10615711 heartbeat IPC: 1.236 cumulative IPC: 1.236 (Simulation time: 00 hr 00 min 57 sec)
Heartbeat CPU 0 instructions: 30000005 cycles: 18410731 heartbeat IPC: 1.283 cumulative IPC: 1.259 (Simulation time: 00 hr 01 min 30 sec)
Heartbeat CPU 0 instructions: 40000005 cycles: 26337176 heartbeat IPC: 1.262 cumulative IPC: 1.26 (Simulation time: 00 hr 02 min 04 sec)
Heartbeat CPU 0 instructions: 50000006 cycles: 34207764 heartbeat IPC: 1.271 cumulative IPC: 1.263 (Simulation time: 00 hr 02 min 38 sec)
Simulation finished CPU 0 instructions: 50000002 cycles: 39709382 cumulative IPC: 1.259 (Simulation time: 00 hr 03 min 12 sec)
Simulation complete CPU 0 instructions: 50000002 cycles: 39709382 cumulative IPC: 1.259 (Simulation time: 00 hr 03 min 12 sec)

ChampSim completed all CPUs

=== Simulation ===
CPU 0 runs traces/648.exchange2_s-387B.champsimtrace.xz

Region of Interest Statistics

CPU 0 cumulative IPC: 1.259 instructions: 50000002 cycles: 39709382
CPU 0 Branch Prediction Accuracy: 87.91% MPKI: 20.35 Average ROB Occupancy at Mispredict: 22.77
Branch type MPKI
BRANCH_DIRECT_JUMP: 0.5307
BRANCH_INDIRECT: 0
BRANCH_CONDITIONAL: 19.82
BRANCH_DIRECT_CALL: 0.00166
BRANCH_INDIRECT_CALL: 0
BRANCH_RETURN: 0.00166

cpu0->cpu0_STLB TOTAL        ACCESS:         37 HIT:          0 MISS:         37 MSHR_MERGE:          0
cpu0->cpu0_STLB LOAD         ACCESS:         37 HIT:          0 MISS:         37 MSHR_MERGE:          0
cpu0->cpu0_STLB RFO          ACCESS:          0 HIT:          0 MISS:          0 MSHR_MERGE:          0
cpu0->cpu0_STLB PREFETCH     ACCESS:          0 HIT:          0 MISS:          0 MSHR_MERGE:          0
cpu0->cpu0_STLB WRITE        ACCESS:          0 HIT:          0 MISS:          0 MSHR_MERGE:          0
cpu0->cpu0_STLB TRANSLATION  ACCESS:          0 HIT:          0 MISS:          0 MSHR_MERGE:          0
cpu0->cpu0_STLB PREFETCH REQUESTED:          0 ISSUED:          0 USEFUL:          0 USELESS:          0
cpu0->cpu0_STLB AVERAGE MISS LATENCY: 726.7 cycles
cpu0->cpu0_L2C TOTAL        ACCESS:      22997 HIT:      21839 MISS:       1158 MSHR_MERGE:          0
cpu0->cpu0_L2C LOAD         ACCESS:      22854 HIT:      21823 MISS:       1031 MSHR_MERGE:          0
cpu0->cpu0_L2C RFO          ACCESS:         78 HIT:          8 MISS:         70 MSHR_MERGE:          0
cpu0->cpu0_L2C PREFETCH     ACCESS:          0 HIT:          0 MISS:          0 MSHR_MERGE:          0
cpu0->cpu0_L2C WRITE        ACCESS:          8 HIT:          8 MISS:          0 MSHR_MERGE:          0
cpu0->cpu0_L2C TRANSLATION  ACCESS:         57 HIT:          0 MISS:         57 MSHR_MERGE:          0
cpu0->cpu0_L2C PREFETCH REQUESTED:          0 ISSUED:          0 USEFUL:          0 USELESS:          0
cpu0->cpu0_L2C AVERAGE MISS LATENCY: 181.9 cycles
cpu0->cpu0_L1I TOTAL        ACCESS:    1328093 HIT:    1287422 MISS:      40671 MSHR_MERGE:      17861
cpu0->cpu0_L1I LOAD         ACCESS:    1328093 HIT:    1287422 MISS:      40671 MSHR_MERGE:      17861
cpu0->cpu0_L1I RFO          ACCESS:          0 HIT:          0 MISS:          0 MSHR_MERGE:          0
cpu0->cpu0_L1I PREFETCH     ACCESS:          0 HIT:          0 MISS:          0 MSHR_MERGE:          0
cpu0->cpu0_L1I WRITE        ACCESS:          0 HIT:          0 MISS:          0 MSHR_MERGE:          0
cpu0->cpu0_L1I TRANSLATION  ACCESS:          0 HIT:          0 MISS:          0 MSHR_MERGE:          0
cpu0->cpu0_L1I PREFETCH REQUESTED:          0 ISSUED:          0 USEFUL:          0 USELESS:          0
cpu0->cpu0_L1I AVERAGE MISS LATENCY: 14.84 cycles
cpu0->cpu0_L1D TOTAL        ACCESS:   13887379 HIT:   13886499 MISS:        880 MSHR_MERGE:        701
cpu0->cpu0_L1D LOAD         ACCESS:    8042430 HIT:    8042343 MISS:         87 MSHR_MERGE:         43
cpu0->cpu0_L1D RFO          ACCESS:          0 HIT:          0 MISS:          0 MSHR_MERGE:          0
cpu0->cpu0_L1D PREFETCH     ACCESS:          0 HIT:          0 MISS:          0 MSHR_MERGE:          0
cpu0->cpu0_L1D WRITE        ACCESS:    5844874 HIT:    5844138 MISS:        736 MSHR_MERGE:        658
cpu0->cpu0_L1D TRANSLATION  ACCESS:         75 HIT:         18 MISS:         57 MSHR_MERGE:          0
cpu0->cpu0_L1D PREFETCH REQUESTED:          0 ISSUED:          0 USEFUL:          0 USELESS:          0
cpu0->cpu0_L1D AVERAGE MISS LATENCY: 196.4 cycles
cpu0->cpu0_ITLB TOTAL        ACCESS:    1046122 HIT:    1046062 MISS:         60 MSHR_MERGE:         36
cpu0->cpu0_ITLB LOAD         ACCESS:    1046122 HIT:    1046062 MISS:         60 MSHR_MERGE:         36
cpu0->cpu0_ITLB RFO          ACCESS:          0 HIT:          0 MISS:          0 MSHR_MERGE:          0
cpu0->cpu0_ITLB PREFETCH     ACCESS:          0 HIT:          0 MISS:          0 MSHR_MERGE:          0
cpu0->cpu0_ITLB WRITE        ACCESS:          0 HIT:          0 MISS:          0 MSHR_MERGE:          0
cpu0->cpu0_ITLB TRANSLATION  ACCESS:          0 HIT:          0 MISS:          0 MSHR_MERGE:          0
cpu0->cpu0_ITLB PREFETCH REQUESTED:          0 ISSUED:          0 USEFUL:          0 USELESS:          0
cpu0->cpu0_ITLB AVERAGE MISS LATENCY: 726.6 cycles
cpu0->cpu0_DTLB TOTAL        ACCESS:   12846867 HIT:   12846824 MISS:         43 MSHR_MERGE:         30
cpu0->cpu0_DTLB LOAD         ACCESS:   12846867 HIT:   12846824 MISS:         43 MSHR_MERGE:         30
cpu0->cpu0_DTLB RFO          ACCESS:          0 HIT:          0 MISS:          0 MSHR_MERGE:          0
cpu0->cpu0_DTLB PREFETCH     ACCESS:          0 HIT:          0 MISS:          0 MSHR_MERGE:          0
cpu0->cpu0_DTLB WRITE        ACCESS:          0 HIT:          0 MISS:          0 MSHR_MERGE:          0
cpu0->cpu0_DTLB TRANSLATION  ACCESS:          0 HIT:          0 MISS:          0 MSHR_MERGE:          0
cpu0->cpu0_DTLB PREFETCH REQUESTED:          0 ISSUED:          0 USEFUL:          0 USELESS:          0
cpu0->cpu0_DTLB AVERAGE MISS LATENCY: 743.9 cycles
cpu0->LLC TOTAL        ACCESS:       1158 HIT:          0 MISS:       1158 MSHR_MERGE:          0
cpu0->LLC LOAD         ACCESS:       1031 HIT:          0 MISS:       1031 MSHR_MERGE:          0
cpu0->LLC RFO          ACCESS:         70 HIT:          0 MISS:         70 MSHR_MERGE:          0
cpu0->LLC PREFETCH     ACCESS:          0 HIT:          0 MISS:          0 MSHR_MERGE:          0
cpu0->LLC WRITE        ACCESS:          0 HIT:          0 MISS:          0 MSHR_MERGE:          0
cpu0->LLC TRANSLATION  ACCESS:         57 HIT:          0 MISS:         57 MSHR_MERGE:          0
cpu0->LLC PREFETCH REQUESTED:          0 ISSUED:          0 USEFUL:          0 USELESS:          0
cpu0->LLC AVERAGE MISS LATENCY: 165.9 cycles

DRAM Statistics

Channel 0 RQ ROW_BUFFER_HIT:         71
  ROW_BUFFER_MISS:       1087
  AVG DBUS CONGESTED CYCLE: 2.963
Channel 0 WQ ROW_BUFFER_HIT:          0
  ROW_BUFFER_MISS:          0
  FULL:          0
Channel 0 REFRESHES ISSUED:       3309
