[VMEM] WARNING: physical memory size is smaller than virtual memory size.

*** ChampSim Multicore Out-of-Order Simulator ***
Warmup Instructions: 10000000
Simulation Instructions: 50000000
Number of CPUs: 1
Page size: 4096

Off-chip DRAM Size: 16 GiB Channels: 1 Width: 64-bit Data Rate: 3205 MT/s
Heartbeat CPU 0 instructions: 10000002 cycles: 2542456 heartbeat IPC: 3.933 cumulative IPC: 3.933 (Simulation time: 00 hr 00 min 18 sec)
Warmup finished CPU 0 instructions: 10000002 cycles: 2542456 cumulative IPC: 3.933 (Simulation time: 00 hr 00 min 18 sec)
Warmup complete CPU 0 instructions: 10000002 cycles: 2542456 cumulative IPC: 3.933 (Simulation time: 00 hr 00 min 18 sec)
Heartbeat CPU 0 instructions: 20000002 cycles: 6732689 heartbeat IPC: 2.387 cumulative IPC: 2.387 (Simulation time: 00 hr 00 min 40 sec)
Heartbeat CPU 0 instructions: 30000003 cycles: 10925421 heartbeat IPC: 2.385 cumulative IPC: 2.386 (Simulation time: 00 hr 01 min 03 sec)
Heartbeat CPU 0 instructions: 40000003 cycles: 15124713 heartbeat IPC: 2.381 cumulative IPC: 2.384 (Simulation time: 00 hr 01 min 25 sec)
Heartbeat CPU 0 instructions: 50000004 cycles: 19319960 heartbeat IPC: 2.384 cumulative IPC: 2.384 (Simulation time: 00 hr 01 min 48 sec)
Simulation finished CPU 0 instructions: 50000001 cycles: 20970093 cumulative IPC: 2.384 (Simulation time: 00 hr 02 min 11 sec)
Simulation complete CPU 0 instructions: 50000001 cycles: 20970093 cumulative IPC: 2.384 (Simulation time: 00 hr 02 min 11 sec)

ChampSim completed all CPUs

=== Simulation ===
CPU 0 runs traces/625.x264_s-12B.champsimtrace.xz

Region of Interest Statistics

CPU 0 cumulative IPC: 2.384 instructions: 50000001 cycles: 20970093
CPU 0 Branch Prediction Accuracy: 88.67% MPKI: 4.877 Average ROB Occupancy at Mispredict: 79.75
Branch type MPKI
BRANCH_DIRECT_JUMP: 4e-05
BRANCH_INDIRECT: 2e-05
BRANCH_CONDITIONAL: 4.875
BRANCH_DIRECT_CALL: 0
BRANCH_INDIRECT_CALL: 0.00136
BRANCH_RETURN: 0

cpu0->cpu0_STLB TOTAL        ACCESS:       3219 HIT:       3063 MISS:        156 MSHR_MERGE:          0
cpu0->cpu0_STLB LOAD         ACCESS:       3219 HIT:       3063 MISS:        156 MSHR_MERGE:          0
cpu0->cpu0_STLB RFO          ACCESS:          0 HIT:          0 MISS:          0 MSHR_MERGE:          0
cpu0->cpu0_STLB PREFETCH     ACCESS:          0 HIT:          0 MISS:          0 MSHR_MERGE:          0
cpu0->cpu0_STLB WRITE        ACCESS:          0 HIT:          0 MISS:          0 MSHR_MERGE:          0
cpu0->cpu0_STLB TRANSLATION  ACCESS:          0 HIT:          0 MISS:          0 MSHR_MERGE:          0
cpu0->cpu0_STLB PREFETCH REQUESTED:          0 ISSUED:          0 USEFUL:          0 USELESS:          0
cpu0->cpu0_STLB AVERAGE MISS LATENCY: 744.7 cycles
cpu0->cpu0_L2C TOTAL        ACCESS:      17154 HIT:       5256 MISS:      11898 MSHR_MERGE:          0
cpu0->cpu0_L2C LOAD         ACCESS:      15927 HIT:       4783 MISS:      11144 MSHR_MERGE:          0
cpu0->cpu0_L2C RFO          ACCESS:        475 HIT:          8 MISS:        467 MSHR_MERGE:          0
cpu0->cpu0_L2C PREFETCH     ACCESS:          0 HIT:          0 MISS:          0 MSHR_MERGE:          0
cpu0->cpu0_L2C WRITE        ACCESS:        469 HIT:        460 MISS:          9 MSHR_MERGE:          0
cpu0->cpu0_L2C TRANSLATION  ACCESS:        283 HIT:          5 MISS:        278 MSHR_MERGE:          0
cpu0->cpu0_L2C PREFETCH REQUESTED:          0 ISSUED:          0 USEFUL:          0 USELESS:          0
cpu0->cpu0_L2C AVERAGE MISS LATENCY: 135.3 cycles
cpu0->cpu0_L1I TOTAL        ACCESS:    4314702 HIT:    4314699 MISS:          3 MSHR_MERGE:          1
cpu0->cpu0_L1I LOAD         ACCESS:    4314702 HIT:    4314699 MISS:          3 MSHR_MERGE:          1
cpu0->cpu0_L1I RFO          ACCESS:          0 HIT:          0 MISS:          0 MSHR_MERGE:          0
cpu0->cpu0_L1I PREFETCH     ACCESS:          0 HIT:          0 MISS:          0 MSHR_MERGE:          0
cpu0->cpu0_L1I WRITE        ACCESS:          0 HIT:          0 MISS:          0 MSHR_MERGE:          0
cpu0->cpu0_L1I TRANSLATION  ACCESS:          0 HIT:          0 MISS:          0 MSHR_MERGE:          0
cpu0->cpu0_L1I PREFETCH REQUESTED:          0 ISSUED:          0 USEFUL:          0 USELESS:          0
cpu0->cpu0_L1I AVERAGE MISS LATENCY: 165 cycles
cpu0->cpu0_L1D TOTAL        ACCESS:   10290069 HIT:   10250470 MISS:      39599 MSHR_MERGE:      22916
cpu0->cpu0_L1D LOAD         ACCESS:    7268557 HIT:    7229728 MISS:      38829 MSHR_MERGE:      22904
cpu0->cpu0_L1D RFO          ACCESS:          0 HIT:          0 MISS:          0 MSHR_MERGE:          0
cpu0->cpu0_L1D PREFETCH     ACCESS:          0 HIT:          0 MISS:          0 MSHR_MERGE:          0
cpu0->cpu0_L1D WRITE        ACCESS:    3021200 HIT:    3020713 MISS:        487 MSHR_MERGE:         12
cpu0->cpu0_L1D TRANSLATION  ACCESS:        312 HIT:         29 MISS:        283 MSHR_MERGE:          0
cpu0->cpu0_L1D PREFETCH REQUESTED:          0 ISSUED:          0 USEFUL:          0 USELESS:          0
cpu0->cpu0_L1D AVERAGE MISS LATENCY: 105.2 cycles
cpu0->cpu0_ITLB TOTAL        ACCESS:    3953931 HIT:    3953931 MISS:          0 MSHR_MERGE:          0
cpu0->cpu0_ITLB LOAD         ACCESS:    3953931 HIT:    3953931 MISS:          0 MSHR_MERGE:          0
cpu0->cpu0_ITLB RFO          ACCESS:          0 HIT:          0 MISS:          0 MSHR_MERGE:          0
cpu0->cpu0_ITLB PREFETCH     ACCESS:          0 HIT:          0 MISS:          0 MSHR_MERGE:          0
cpu0->cpu0_ITLB WRITE        ACCESS:          0 HIT:          0 MISS:          0 MSHR_MERGE:          0
cpu0->cpu0_ITLB TRANSLATION  ACCESS:          0 HIT:          0 MISS:          0 MSHR_MERGE:          0
cpu0->cpu0_ITLB PREFETCH REQUESTED:          0 ISSUED:          0 USEFUL:          0 USELESS:          0
cpu0->cpu0_ITLB AVERAGE MISS LATENCY: - cycles
cpu0->cpu0_DTLB TOTAL        ACCESS:    9825864 HIT:    9820304 MISS:       5560 MSHR_MERGE:       2341
cpu0->cpu0_DTLB LOAD         ACCESS:    9825864 HIT:    9820304 MISS:       5560 MSHR_MERGE:       2341
cpu0->cpu0_DTLB RFO          ACCESS:          0 HIT:          0 MISS:          0 MSHR_MERGE:          0
cpu0->cpu0_DTLB PREFETCH     ACCESS:          0 HIT:          0 MISS:          0 MSHR_MERGE:          0
cpu0->cpu0_DTLB WRITE        ACCESS:          0 HIT:          0 MISS:          0 MSHR_MERGE:          0
cpu0->cpu0_DTLB TRANSLATION  ACCESS:          0 HIT:          0 MISS:          0 MSHR_MERGE:          0
cpu0->cpu0_DTLB PREFETCH REQUESTED:          0 ISSUED:          0 USEFUL:          0 USELESS:          0
cpu0->cpu0_DTLB AVERAGE MISS LATENCY: 41.14 cycles
cpu0->LLC TOTAL        ACCESS:      12049 HIT:       2994 MISS:       9055 MSHR_MERGE:          0
cpu0->LLC LOAD         ACCESS:      11144 HIT:       2834 MISS:       8310 MSHR_MERGE:          0
cpu0->LLC RFO          ACCESS:        467 HIT:          0 MISS:        467 MSHR_MERGE:          0
cpu0->LLC PREFETCH     ACCESS:          0 HIT:          0 MISS:          0 MSHR_MERGE:          0
cpu0->LLC WRITE        ACCESS:        160 HIT:        160 MISS:          0 MSHR_MERGE:          0
cpu0->LLC TRANSLATION  ACCESS:        278 HIT:          0 MISS:        278 MSHR_MERGE:          0
cpu0->LLC PREFETCH REQUESTED:          0 ISSUED:          0 USEFUL:          0 USELESS:          0
cpu0->LLC AVERAGE MISS LATENCY: 157 cycles

DRAM Statistics

Channel 0 RQ ROW_BUFFER_HIT:         75
  ROW_BUFFER_MISS:       8980
  AVG DBUS CONGESTED CYCLE: 2.897
Channel 0 WQ ROW_BUFFER_HIT:          0
  ROW_BUFFER_MISS:          0
  FULL:          0
Channel 0 REFRESHES ISSUED:       1748
