[VMEM] WARNING: physical memory size is smaller than virtual memory size.

*** ChampSim Multicore Out-of-Order Simulator ***
Warmup Instructions: 10000000
Simulation Instructions: 50000000
Number of CPUs: 1
Page size: 4096

Off-chip DRAM Size: 16 GiB Channels: 1 Width: 64-bit Data Rate: 3205 MT/s
Heartbeat CPU 0 instructions: 10000002 cycles: 2805868 heartbeat IPC: 3.564 cumulative IPC: 3.564 (Simulation time: 00 hr 00 min 25 sec)
Warmup finished CPU 0 instructions: 10000002 cycles: 2805868 cumulative IPC: 3.564 (Simulation time: 00 hr 00 min 25 sec)
Warmup complete CPU 0 instructions: 10000002 cycles: 2805868 cumulative IPC: 3.564 (Simulation time: 00 hr 00 min 25 sec)
Heartbeat CPU 0 instructions: 20000004 cycles: 14275594 heartbeat IPC: 0.8719 cumulative IPC: 0.8719 (Simulation time: 00 hr 01 min 22 sec)
Heartbeat CPU 0 instructions: 30000005 cycles: 25843364 heartbeat IPC: 0.8645 cumulative IPC: 0.8682 (Simulation time: 00 hr 02 min 19 sec)
Heartbeat CPU 0 instructions: 40000008 cycles: 37362256 heartbeat IPC: 0.8681 cumulative IPC: 0.8681 (Simulation time: 00 hr 03 min 16 sec)
Heartbeat CPU 0 instructions: 50000009 cycles: 48844292 heartbeat IPC: 0.8709 cumulative IPC: 0.8688 (Simulation time: 00 hr 04 min 13 sec)
Simulation finished CPU 0 instructions: 50000003 cycles: 57593583 cumulative IPC: 0.8682 (Simulation time: 00 hr 05 min 11 sec)
Simulation complete CPU 0 instructions: 50000003 cycles: 57593583 cumulative IPC: 0.8682 (Simulation time: 00 hr 05 min 11 sec)

ChampSim completed all CPUs

=== Simulation ===
CPU 0 runs traces/603.bwaves_s-2931B.champsimtrace.xz

Region of Interest Statistics

CPU 0 cumulative IPC: 0.8682 instructions: 50000003 cycles: 57593583
CPU 0 Branch Prediction Accuracy: 80.62% MPKI: 1.636 Average ROB Occupancy at Mispredict: 296.8
Branch type MPKI
BRANCH_DIRECT_JUMP: 0
BRANCH_INDIRECT: 0
BRANCH_CONDITIONAL: 1.636
BRANCH_DIRECT_CALL: 0
BRANCH_INDIRECT_CALL: 0
BRANCH_RETURN: 0

cpu0->cpu0_STLB TOTAL        ACCESS:      85918 HIT:      75274 MISS:      10644 MSHR_MERGE:          0
cpu0->cpu0_STLB LOAD         ACCESS:      85918 HIT:      75274 MISS:      10644 MSHR_MERGE:          0
cpu0->cpu0_STLB RFO          ACCESS:          0 HIT:          0 MISS:          0 MSHR_MERGE:          0
cpu0->cpu0_STLB PREFETCH     ACCESS:          0 HIT:          0 MISS:          0 MSHR_MERGE:          0
cpu0->cpu0_STLB WRITE        ACCESS:          0 HIT:          0 MISS:          0 MSHR_MERGE:          0
cpu0->cpu0_STLB TRANSLATION  ACCESS:          0 HIT:          0 MISS:          0 MSHR_MERGE:          0
cpu0->cpu0_STLB PREFETCH REQUESTED:          0 ISSUED:          0 USEFUL:          0 USELESS:          0
cpu0->cpu0_STLB AVERAGE MISS LATENCY: 708.3 cycles
cpu0->cpu0_L2C TOTAL        ACCESS:    1173807 HIT:     240773 MISS:     933034 MSHR_MERGE:          0
cpu0->cpu0_L2C LOAD         ACCESS:     518150 HIT:      29340 MISS:     488810 MSHR_MERGE:          0
cpu0->cpu0_L2C RFO          ACCESS:     315263 HIT:      17510 MISS:     297753 MSHR_MERGE:          0
cpu0->cpu0_L2C PREFETCH     ACCESS:          0 HIT:          0 MISS:          0 MSHR_MERGE:          0
cpu0->cpu0_L2C WRITE        ACCESS:     319153 HIT:     191245 MISS:     127908 MSHR_MERGE:          0
cpu0->cpu0_L2C TRANSLATION  ACCESS:      21241 HIT:       2678 MISS:      18563 MSHR_MERGE:          0
cpu0->cpu0_L2C PREFETCH REQUESTED:          0 ISSUED:          0 USEFUL:          0 USELESS:          0
cpu0->cpu0_L2C AVERAGE MISS LATENCY: 180.3 cycles
cpu0->cpu0_L1I TOTAL        ACCESS:    5680102 HIT:    5680094 MISS:          8 MSHR_MERGE:          1
cpu0->cpu0_L1I LOAD         ACCESS:    5680102 HIT:    5680094 MISS:          8 MSHR_MERGE:          1
cpu0->cpu0_L1I RFO          ACCESS:          0 HIT:          0 MISS:          0 MSHR_MERGE:          0
cpu0->cpu0_L1I PREFETCH     ACCESS:          0 HIT:          0 MISS:          0 MSHR_MERGE:          0
cpu0->cpu0_L1I WRITE        ACCESS:          0 HIT:          0 MISS:          0 MSHR_MERGE:          0
cpu0->cpu0_L1I TRANSLATION  ACCESS:          0 HIT:          0 MISS:          0 MSHR_MERGE:          0
cpu0->cpu0_L1I PREFETCH REQUESTED:          0 ISSUED:          0 USEFUL:          0 USELESS:          0
cpu0->cpu0_L1I AVERAGE MISS LATENCY: 236.4 cycles
cpu0->cpu0_L1D TOTAL        ACCESS:   17011261 HIT:   15401891 MISS:    1609370 MSHR_MERGE:     754367
cpu0->cpu0_L1D LOAD         ACCESS:    7843632 HIT:    7318955 MISS:     524677 MSHR_MERGE:       6529
cpu0->cpu0_L1D RFO          ACCESS:          0 HIT:          0 MISS:          0 MSHR_MERGE:          0
cpu0->cpu0_L1D PREFETCH     ACCESS:          0 HIT:          0 MISS:          0 MSHR_MERGE:          0
cpu0->cpu0_L1D WRITE        ACCESS:    9146314 HIT:    8082865 MISS:    1063449 MSHR_MERGE:     747835
cpu0->cpu0_L1D TRANSLATION  ACCESS:      21315 HIT:         71 MISS:      21244 MSHR_MERGE:          3
cpu0->cpu0_L1D PREFETCH REQUESTED:          0 ISSUED:          0 USEFUL:          0 USELESS:          0
cpu0->cpu0_L1D AVERAGE MISS LATENCY: 205.2 cycles
cpu0->cpu0_ITLB TOTAL        ACCESS:    4540982 HIT:    4540982 MISS:          0 MSHR_MERGE:          0
cpu0->cpu0_ITLB LOAD         ACCESS:    4540982 HIT:    4540982 MISS:          0 MSHR_MERGE:          0
cpu0->cpu0_ITLB RFO          ACCESS:          0 HIT:          0 MISS:          0 MSHR_MERGE:          0
cpu0->cpu0_ITLB PREFETCH     ACCESS:          0 HIT:          0 MISS:          0 MSHR_MERGE:          0
cpu0->cpu0_ITLB WRITE        ACCESS:          0 HIT:          0 MISS:          0 MSHR_MERGE:          0
cpu0->cpu0_ITLB TRANSLATION  ACCESS:          0 HIT:          0 MISS:          0 MSHR_MERGE:          0
cpu0->cpu0_ITLB PREFETCH REQUESTED:          0 ISSUED:          0 USEFUL:          0 USELESS:          0
cpu0->cpu0_ITLB AVERAGE MISS LATENCY: - cycles
cpu0->cpu0_DTLB TOTAL        ACCESS:   15713783 HIT:   15617586 MISS:      96197 MSHR_MERGE:      10279
cpu0->cpu0_DTLB LOAD         ACCESS:   15713783 HIT:   15617586 MISS:      96197 MSHR_MERGE:      10279
cpu0->cpu0_DTLB RFO          ACCESS:          0 HIT:          0 MISS:          0 MSHR_MERGE:          0
cpu0->cpu0_DTLB PREFETCH     ACCESS:          0 HIT:          0 MISS:          0 MSHR_MERGE:          0
cpu0->cpu0_DTLB WRITE        ACCESS:          0 HIT:          0 MISS:          0 MSHR_MERGE:          0
cpu0->cpu0_DTLB TRANSLATION  ACCESS:          0 HIT:          0 MISS:          0 MSHR_MERGE:          0
cpu0->cpu0_DTLB PREFETCH REQUESTED:          0 ISSUED:          0 USEFUL:          0 USELESS:          0
cpu0->cpu0_DTLB AVERAGE MISS LATENCY: 92.89 cycles
cpu0->LLC TOTAL        ACCESS:    1102886 HIT:     390113 MISS:     712773 MSHR_MERGE:          0
cpu0->LLC LOAD         ACCESS:     488810 HIT:     104962 MISS:     383848 MSHR_MERGE:          0
cpu0->LLC RFO          ACCESS:     297753 HIT:         57 MISS:     297696 MSHR_MERGE:          0
cpu0->LLC PREFETCH     ACCESS:          0 HIT:          0 MISS:          0 MSHR_MERGE:          0
cpu0->LLC WRITE        ACCESS:     297760 HIT:     278800 MISS:      18960 MSHR_MERGE:          0
cpu0->LLC TRANSLATION  ACCESS:      18563 HIT:       6294 MISS:      12269 MSHR_MERGE:          0
cpu0->LLC PREFETCH REQUESTED:          0 ISSUED:          0 USEFUL:          0 USELESS:          0
cpu0->LLC AVERAGE MISS LATENCY: 217.7 cycles

DRAM Statistics

Channel 0 RQ ROW_BUFFER_HIT:          4
  ROW_BUFFER_MISS:     693809
  AVG DBUS CONGESTED CYCLE: 11.96
Channel 0 WQ ROW_BUFFER_HIT:     109052
  ROW_BUFFER_MISS:     188567
  FULL:          0
Channel 0 REFRESHES ISSUED:       4800
