[VMEM] WARNING: physical memory size is smaller than virtual memory size.

*** ChampSim Multicore Out-of-Order Simulator ***
Warmup Instructions: 10000000
Simulation Instructions: 50000000
Number of CPUs: 1
Page size: 4096

Off-chip DRAM Size: 16 GiB Channels: 1 Width: 64-bit Data Rate: 3205 MT/s
Heartbeat CPU 0 instructions: 10000001 cycles: 2968912 heartbeat IPC: 3.368 cumulative IPC: 3.368 (Simulation time: 00 hr 00 min 28 sec)
Warmup finished CPU 0 instructions: 10000001 cycles: 2968912 cumulative IPC: 3.368 (Simulation time: 00 hr 00 min 28 sec)
Warmup complete CPU 0 instructions: 10000001 cycles: 2968912 cumulative IPC: 3.368 (Simulation time: 00 hr 00 min 28 sec)
Heartbeat CPU 0 instructions: 20000002 cycles: 9363655 heartbeat IPC: 1.564 cumulative IPC: 1.564 (Simulation time: 00 hr 01 min 11 sec)
Heartbeat CPU 0 instructions: 30000006 cycles: 15689871 heartbeat IPC: 1.581 cumulative IPC: 1.572 (Simulation time: 00 hr 01 min 53 sec)
Heartbeat CPU 0 instructions: 40000007 cycles: 21983812 heartbeat IPC: 1.589 cumulative IPC: 1.578 (Simulation time: 00 hr 02 min 36 sec)
Heartbeat CPU 0 instructions: 50000007 cycles: 28305448 heartbeat IPC: 1.582 cumulative IPC: 1.579 (Simulation time: 00 hr 03 min 19 sec)
Simulation finished CPU 0 instructions: 50000001 cycles: 35336521 cumulative IPC: 1.415 (Simulation time: 00 hr 04 min 17 sec)
Simulation complete CPU 0 instructions: 50000001 cycles: 35336521 cumulative IPC: 1.415 (Simulation time: 00 hr 04 min 17 sec)

ChampSim completed all CPUs

=== Simulation ===
CPU 0 runs traces/607.cactuBSSN_s-2421B.champsimtrace.xz

Region of Interest Statistics

CPU 0 cumulative IPC: 1.415 instructions: 50000001 cycles: 35336521
CPU 0 Branch Prediction Accuracy: 91.79% MPKI: 0.676 Average ROB Occupancy at Mispredict: 305.2
Branch type MPKI
BRANCH_DIRECT_JUMP: 0.00124
BRANCH_INDIRECT: 0.00164
BRANCH_CONDITIONAL: 0.3451
BRANCH_DIRECT_CALL: 0.01318
BRANCH_INDIRECT_CALL: 6e-05
BRANCH_RETURN: 0.3147

cpu0->cpu0_STLB TOTAL        ACCESS:    2211606 HIT:    2208547 MISS:       3059 MSHR_MERGE:          0
cpu0->cpu0_STLB LOAD         ACCESS:    2211606 HIT:    2208547 MISS:       3059 MSHR_MERGE:          0
cpu0->cpu0_STLB RFO          ACCESS:          0 HIT:          0 MISS:          0 MSHR_MERGE:          0
cpu0->cpu0_STLB PREFETCH     ACCESS:          0 HIT:          0 MISS:          0 MSHR_MERGE:          0
cpu0->cpu0_STLB WRITE        ACCESS:          0 HIT:          0 MISS:          0 MSHR_MERGE:          0
cpu0->cpu0_STLB TRANSLATION  ACCESS:          0 HIT:          0 MISS:          0 MSHR_MERGE:          0
cpu0->cpu0_STLB PREFETCH REQUESTED:          0 ISSUED:          0 USEFUL:          0 USELESS:          0
cpu0->cpu0_STLB AVERAGE MISS LATENCY: 835.3 cycles
cpu0->cpu0_L2C TOTAL        ACCESS:    5460783 HIT:    4063819 MISS:    1396964 MSHR_MERGE:          0
cpu0->cpu0_L2C LOAD         ACCESS:    4780288 HIT:    3595564 MISS:    1184724 MSHR_MERGE:          0
cpu0->cpu0_L2C RFO          ACCESS:     321677 HIT:     194599 MISS:     127078 MSHR_MERGE:          0
cpu0->cpu0_L2C PREFETCH     ACCESS:          0 HIT:          0 MISS:          0 MSHR_MERGE:          0
cpu0->cpu0_L2C WRITE        ACCESS:     351370 HIT:     273588 MISS:      77782 MSHR_MERGE:          0
cpu0->cpu0_L2C TRANSLATION  ACCESS:       7448 HIT:         68 MISS:       7380 MSHR_MERGE:          0
cpu0->cpu0_L2C PREFETCH REQUESTED:          0 ISSUED:          0 USEFUL:          0 USELESS:          0
cpu0->cpu0_L2C AVERAGE MISS LATENCY: 42.58 cycles
cpu0->cpu0_L1I TOTAL        ACCESS:   11001838 HIT:    8862286 MISS:    2139552 MSHR_MERGE:    1049798
cpu0->cpu0_L1I LOAD         ACCESS:   11001838 HIT:    8862286 MISS:    2139552 MSHR_MERGE:    1049798
cpu0->cpu0_L1I RFO          ACCESS:          0 HIT:          0 MISS:          0 MSHR_MERGE:          0
cpu0->cpu0_L1I PREFETCH     ACCESS:          0 HIT:          0 MISS:          0 MSHR_MERGE:          0
cpu0->cpu0_L1I WRITE        ACCESS:          0 HIT:          0 MISS:          0 MSHR_MERGE:          0
cpu0->cpu0_L1I TRANSLATION  ACCESS:          0 HIT:          0 MISS:          0 MSHR_MERGE:          0
cpu0->cpu0_L1I PREFETCH REQUESTED:          0 ISSUED:          0 USEFUL:          0 USELESS:          0
cpu0->cpu0_L1I AVERAGE MISS LATENCY: 7.306 cycles
cpu0->cpu0_L1D TOTAL        ACCESS:   18756776 HIT:   14276633 MISS:    4480143 MSHR_MERGE:     458370
cpu0->cpu0_L1D LOAD         ACCESS:   14457436 HIT:   10341252 MISS:    4116184 MSHR_MERGE:     423570
cpu0->cpu0_L1D RFO          ACCESS:          0 HIT:          0 MISS:          0 MSHR_MERGE:          0
cpu0->cpu0_L1D PREFETCH     ACCESS:          0 HIT:          0 MISS:          0 MSHR_MERGE:          0
cpu0->cpu0_L1D WRITE        ACCESS:    4291690 HIT:    3935253 MISS:     356437 MSHR_MERGE:      34726
cpu0->cpu0_L1D TRANSLATION  ACCESS:       7650 HIT:        128 MISS:       7522 MSHR_MERGE:         74
cpu0->cpu0_L1D PREFETCH REQUESTED:          0 ISSUED:          0 USEFUL:          0 USELESS:          0
cpu0->cpu0_L1D AVERAGE MISS LATENCY: 23.81 cycles
cpu0->cpu0_ITLB TOTAL        ACCESS:    8808874 HIT:    8808748 MISS:        126 MSHR_MERGE:         66
cpu0->cpu0_ITLB LOAD         ACCESS:    8808874 HIT:    8808748 MISS:        126 MSHR_MERGE:         66
cpu0->cpu0_ITLB RFO          ACCESS:          0 HIT:          0 MISS:          0 MSHR_MERGE:          0
cpu0->cpu0_ITLB PREFETCH     ACCESS:          0 HIT:          0 MISS:          0 MSHR_MERGE:          0
cpu0->cpu0_ITLB WRITE        ACCESS:          0 HIT:          0 MISS:          0 MSHR_MERGE:          0
cpu0->cpu0_ITLB TRANSLATION  ACCESS:          0 HIT:          0 MISS:          0 MSHR_MERGE:          0
cpu0->cpu0_ITLB PREFETCH REQUESTED:          0 ISSUED:          0 USEFUL:          0 USELESS:          0
cpu0->cpu0_ITLB AVERAGE MISS LATENCY: 798.3 cycles
cpu0->cpu0_DTLB TOTAL        ACCESS:   17702965 HIT:   15140690 MISS:    2562275 MSHR_MERGE:     350729
cpu0->cpu0_DTLB LOAD         ACCESS:   17702965 HIT:   15140690 MISS:    2562275 MSHR_MERGE:     350729
cpu0->cpu0_DTLB RFO          ACCESS:          0 HIT:          0 MISS:          0 MSHR_MERGE:          0
cpu0->cpu0_DTLB PREFETCH     ACCESS:          0 HIT:          0 MISS:          0 MSHR_MERGE:          0
cpu0->cpu0_DTLB WRITE        ACCESS:          0 HIT:          0 MISS:          0 MSHR_MERGE:          0
cpu0->cpu0_DTLB TRANSLATION  ACCESS:          0 HIT:          0 MISS:          0 MSHR_MERGE:          0
cpu0->cpu0_DTLB PREFETCH REQUESTED:          0 ISSUED:          0 USEFUL:          0 USELESS:          0
cpu0->cpu0_DTLB AVERAGE MISS LATENCY: 6.175 cycles
cpu0->LLC TOTAL        ACCESS:    1442566 HIT:    1262020 MISS:     180546 MSHR_MERGE:          0
cpu0->LLC LOAD         ACCESS:    1184667 HIT:    1033766 MISS:     150901 MSHR_MERGE:          0
cpu0->LLC RFO          ACCESS:     126557 HIT:     101884 MISS:      24673 MSHR_MERGE:          0
cpu0->LLC PREFETCH     ACCESS:          0 HIT:          0 MISS:          0 MSHR_MERGE:          0
cpu0->LLC WRITE        ACCESS:     123962 HIT:     123907 MISS:         55 MSHR_MERGE:          0
cpu0->LLC TRANSLATION  ACCESS:       7380 HIT:       2463 MISS:       4917 MSHR_MERGE:          0
cpu0->LLC PREFETCH REQUESTED:          0 ISSUED:          0 USEFUL:          0 USELESS:          0
cpu0->LLC AVERAGE MISS LATENCY: 217 cycles

DRAM Statistics

Channel 0 RQ ROW_BUFFER_HIT:        117
  ROW_BUFFER_MISS:     180374
  AVG DBUS CONGESTED CYCLE: 9.368
Channel 0 WQ ROW_BUFFER_HIT:       3734
  ROW_BUFFER_MISS:      29891
  FULL:          0
Channel 0 REFRESHES ISSUED:       2945
