[VMEM] WARNING: physical memory size is smaller than virtual memory size.

*** ChampSim Multicore Out-of-Order Simulator ***
Warmup Instructions: 10000000
Simulation Instructions: 50000000
Number of CPUs: 1
Page size: 4096

Off-chip DRAM Size: 16 GiB Channels: 1 Width: 64-bit Data Rate: 3205 MT/s
Heartbeat CPU 0 instructions: 10000001 cycles: 2561760 heartbeat IPC: 3.904 cumulative IPC: 3.904 (Simulation time: 00 hr 00 min 20 sec)
Warmup finished CPU 0 instructions: 10000001 cycles: 2561760 cumulative IPC: 3.904 (Simulation time: 00 hr 00 min 20 sec)
Warmup complete CPU 0 instructions: 10000001 cycles: 2561760 cumulative IPC: 3.904 (Simulation time: 00 hr 00 min 20 sec)
Heartbeat CPU 0 instructions: 20000002 cycles: 9785659 heartbeat IPC: 1.384 cumulative IPC: 1.384 (Simulation time: 00 hr 00 min 51 sec)
Heartbeat CPU 0 instructions: 30000002 cycles: 17052632 heartbeat IPC: 1.376 cumulative IPC: 1.38 (Simulation time: 00 hr 01 min 22 sec)
Heartbeat CPU 0 instructions: 40000003 cycles: 24228691 heartbeat IPC: 1.394 cumulative IPC: 1.385 (Simulation time: 00 hr 01 min 54 sec)
Heartbeat CPU 0 instructions: 50000004 cycles: 31460897 heartbeat IPC: 1.383 cumulative IPC: 1.384 (Simulation time: 00 hr 02 min 25 sec)
Simulation finished CPU 0 instructions: 50000000 cycles: 36179043 cumulative IPC: 1.382 (Simulation time: 00 hr 02 min 57 sec)
Simulation complete CPU 0 instructions: 50000000 cycles: 36179043 cumulative IPC: 1.382 (Simulation time: 00 hr 02 min 57 sec)

ChampSim completed all CPUs

=== Simulation ===
CPU 0 runs traces/644.nab_s-12459B.champsimtrace.xz

Region of Interest Statistics

CPU 0 cumulative IPC: 1.382 instructions: 50000000 cycles: 36179043
CPU 0 Branch Prediction Accuracy: 90.93% MPKI: 12.97 Average ROB Occupancy at Mispredict: 41.2
Branch type MPKI
BRANCH_DIRECT_JUMP: 0.2759
BRANCH_INDIRECT: 0
BRANCH_CONDITIONAL: 12.69
BRANCH_DIRECT_CALL: 0
BRANCH_INDIRECT_CALL: 0
BRANCH_RETURN: 0

cpu0->cpu0_STLB TOTAL        ACCESS:      11013 HIT:      10873 MISS:        140 MSHR_MERGE:          0
cpu0->cpu0_STLB LOAD         ACCESS:      11013 HIT:      10873 MISS:        140 MSHR_MERGE:          0
cpu0->cpu0_STLB RFO          ACCESS:          0 HIT:          0 MISS:          0 MSHR_MERGE:          0
cpu0->cpu0_STLB PREFETCH     ACCESS:          0 HIT:          0 MISS:          0 MSHR_MERGE:          0
cpu0->cpu0_STLB WRITE        ACCESS:          0 HIT:          0 MISS:          0 MSHR_MERGE:          0
cpu0->cpu0_STLB TRANSLATION  ACCESS:          0 HIT:          0 MISS:          0 MSHR_MERGE:          0
cpu0->cpu0_STLB PREFETCH REQUESTED:          0 ISSUED:          0 USEFUL:          0 USELESS:          0
cpu0->cpu0_STLB AVERAGE MISS LATENCY: 689.4 cycles
cpu0->cpu0_L2C TOTAL        ACCESS:     332725 HIT:     302392 MISS:      30333 MSHR_MERGE:          0
cpu0->cpu0_L2C LOAD         ACCESS:     291489 HIT:     269968 MISS:      21521 MSHR_MERGE:          0
cpu0->cpu0_L2C RFO          ACCESS:      16404 HIT:       8790 MISS:       7614 MSHR_MERGE:          0
cpu0->cpu0_L2C PREFETCH     ACCESS:          0 HIT:          0 MISS:          0 MSHR_MERGE:          0
cpu0->cpu0_L2C WRITE        ACCESS:      24611 HIT:      23621 MISS:        990 MSHR_MERGE:          0
cpu0->cpu0_L2C TRANSLATION  ACCESS:        221 HIT:         13 MISS:        208 MSHR_MERGE:          0
cpu0->cpu0_L2C PREFETCH REQUESTED:          0 ISSUED:          0 USEFUL:          0 USELESS:          0
cpu0->cpu0_L2C AVERAGE MISS LATENCY: 63.89 cycles
cpu0->cpu0_L1I TOTAL        ACCESS:     127228 HIT:     127228 MISS:          0 MSHR_MERGE:          0
cpu0->cpu0_L1I LOAD         ACCESS:     127228 HIT:     127228 MISS:          0 MSHR_MERGE:          0
cpu0->cpu0_L1I RFO          ACCESS:          0 HIT:          0 MISS:          0 MSHR_MERGE:          0
cpu0->cpu0_L1I PREFETCH     ACCESS:          0 HIT:          0 MISS:          0 MSHR_MERGE:          0
cpu0->cpu0_L1I WRITE        ACCESS:          0 HIT:          0 MISS:          0 MSHR_MERGE:          0
cpu0->cpu0_L1I TRANSLATION  ACCESS:          0 HIT:          0 MISS:          0 MSHR_MERGE:          0
cpu0->cpu0_L1I PREFETCH REQUESTED:          0 ISSUED:          0 USEFUL:          0 USELESS:          0
cpu0->cpu0_L1I AVERAGE MISS LATENCY: - cycles
cpu0->cpu0_L1D TOTAL        ACCESS:   13947851 HIT:   13461710 MISS:     486141 MSHR_MERGE:     178027
cpu0->cpu0_L1D LOAD         ACCESS:    8941595 HIT:    8589107 MISS:     352488 MSHR_MERGE:      60999
cpu0->cpu0_L1D RFO          ACCESS:          0 HIT:          0 MISS:          0 MSHR_MERGE:          0
cpu0->cpu0_L1D PREFETCH     ACCESS:          0 HIT:          0 MISS:          0 MSHR_MERGE:          0
cpu0->cpu0_L1D WRITE        ACCESS:    5005976 HIT:    4872547 MISS:     133429 MSHR_MERGE:     117025
cpu0->cpu0_L1D TRANSLATION  ACCESS:        280 HIT:         56 MISS:        224 MSHR_MERGE:          3
cpu0->cpu0_L1D PREFETCH REQUESTED:          0 ISSUED:          0 USEFUL:          0 USELESS:          0
cpu0->cpu0_L1D AVERAGE MISS LATENCY: 14.38 cycles
cpu0->cpu0_ITLB TOTAL        ACCESS:     109900 HIT:     109900 MISS:          0 MSHR_MERGE:          0
cpu0->cpu0_ITLB LOAD         ACCESS:     109900 HIT:     109900 MISS:          0 MSHR_MERGE:          0
cpu0->cpu0_ITLB RFO          ACCESS:          0 HIT:          0 MISS:          0 MSHR_MERGE:          0
cpu0->cpu0_ITLB PREFETCH     ACCESS:          0 HIT:          0 MISS:          0 MSHR_MERGE:          0
cpu0->cpu0_ITLB WRITE        ACCESS:          0 HIT:          0 MISS:          0 MSHR_MERGE:          0
cpu0->cpu0_ITLB TRANSLATION  ACCESS:          0 HIT:          0 MISS:          0 MSHR_MERGE:          0
cpu0->cpu0_ITLB PREFETCH REQUESTED:          0 ISSUED:          0 USEFUL:          0 USELESS:          0
cpu0->cpu0_ITLB AVERAGE MISS LATENCY: - cycles
cpu0->cpu0_DTLB TOTAL        ACCESS:   13433702 HIT:   13419383 MISS:      14319 MSHR_MERGE:       3306
cpu0->cpu0_DTLB LOAD         ACCESS:   13433702 HIT:   13419383 MISS:      14319 MSHR_MERGE:       3306
cpu0->cpu0_DTLB RFO          ACCESS:          0 HIT:          0 MISS:          0 MSHR_MERGE:          0
cpu0->cpu0_DTLB PREFETCH     ACCESS:          0 HIT:          0 MISS:          0 MSHR_MERGE:          0
cpu0->cpu0_DTLB WRITE        ACCESS:          0 HIT:          0 MISS:          0 MSHR_MERGE:          0
cpu0->cpu0_DTLB TRANSLATION  ACCESS:          0 HIT:          0 MISS:          0 MSHR_MERGE:          0
cpu0->cpu0_DTLB PREFETCH REQUESTED:          0 ISSUED:          0 USEFUL:          0 USELESS:          0
cpu0->cpu0_DTLB AVERAGE MISS LATENCY: 13.78 cycles
cpu0->LLC TOTAL        ACCESS:      36415 HIT:      27018 MISS:       9397 MSHR_MERGE:          0
cpu0->LLC LOAD         ACCESS:      21521 HIT:      19885 MISS:       1636 MSHR_MERGE:          0
cpu0->LLC RFO          ACCESS:       7614 HIT:         40 MISS:       7574 MSHR_MERGE:          0
cpu0->LLC PREFETCH     ACCESS:          0 HIT:          0 MISS:          0 MSHR_MERGE:          0
cpu0->LLC WRITE        ACCESS:       7072 HIT:       7072 MISS:          0 MSHR_MERGE:          0
cpu0->LLC TRANSLATION  ACCESS:        208 HIT:         21 MISS:        187 MSHR_MERGE:          0
cpu0->LLC PREFETCH REQUESTED:          0 ISSUED:          0 USEFUL:          0 USELESS:          0
cpu0->LLC AVERAGE MISS LATENCY: 158 cycles

DRAM Statistics

Channel 0 RQ ROW_BUFFER_HIT:       2587
  ROW_BUFFER_MISS:       6810
  AVG DBUS CONGESTED CYCLE: 2.725
Channel 0 WQ ROW_BUFFER_HIT:          0
  ROW_BUFFER_MISS:          0
  FULL:          0
Channel 0 REFRESHES ISSUED:       3015
