[VMEM] WARNING: physical memory size is smaller than virtual memory size.

*** ChampSim Multicore Out-of-Order Simulator ***
Warmup Instructions: 10000000
Simulation Instructions: 50000000
Number of CPUs: 1
Page size: 4096

Off-chip DRAM Size: 16 GiB Channels: 1 Width: 64-bit Data Rate: 3205 MT/s
Heartbeat CPU 0 instructions: 10000000 cycles: 3585161 heartbeat IPC: 2.789 cumulative IPC: 2.789 (Simulation time: 00 hr 00 min 28 sec)
Warmup finished CPU 0 instructions: 10000000 cycles: 3585161 cumulative IPC: 2.789 (Simulation time: 00 hr 00 min 28 sec)
Warmup complete CPU 0 instructions: 10000000 cycles: 3585161 cumulative IPC: 2.789 (Simulation time: 00 hr 00 min 28 sec)
Heartbeat CPU 0 instructions: 20000004 cycles: 25484705 heartbeat IPC: 0.4566 cumulative IPC: 0.4566 (Simulation time: 00 hr 02 min 38 sec)
Heartbeat CPU 0 instructions: 30000008 cycles: 46922817 heartbeat IPC: 0.4665 cumulative IPC: 0.4615 (Simulation time: 00 hr 04 min 46 sec)
Heartbeat CPU 0 instructions: 40000010 cycles: 67495379 heartbeat IPC: 0.4861 cumulative IPC: 0.4694 (Simulation time: 00 hr 06 min 48 sec)
Heartbeat CPU 0 instructions: 50000011 cycles: 87355294 heartbeat IPC: 0.5035 cumulative IPC: 0.4775 (Simulation time: 00 hr 08 min 46 sec)
Simulation finished CPU 0 instructions: 50000000 cycles: 102797171 cumulative IPC: 0.4864 (Simulation time: 00 hr 10 min 39 sec)
Simulation complete CPU 0 instructions: 50000000 cycles: 102797171 cumulative IPC: 0.4864 (Simulation time: 00 hr 10 min 39 sec)

ChampSim completed all CPUs

=== Simulation ===
CPU 0 runs traces/619.lbm_s-2676B.champsimtrace.xz

Region of Interest Statistics

CPU 0 cumulative IPC: 0.4864 instructions: 50000000 cycles: 102797171
CPU 0 Branch Prediction Accuracy: 95.94% MPKI: 0.6505 Average ROB Occupancy at Mispredict: 210.5
Branch type MPKI
BRANCH_DIRECT_JUMP: 0
BRANCH_INDIRECT: 0
BRANCH_CONDITIONAL: 0.6505
BRANCH_DIRECT_CALL: 0
BRANCH_INDIRECT_CALL: 0
BRANCH_RETURN: 0

cpu0->cpu0_STLB TOTAL        ACCESS:      58518 HIT:      26765 MISS:      31753 MSHR_MERGE:          0
cpu0->cpu0_STLB LOAD         ACCESS:      58518 HIT:      26765 MISS:      31753 MSHR_MERGE:          0
cpu0->cpu0_STLB RFO          ACCESS:          0 HIT:          0 MISS:          0 MSHR_MERGE:          0
cpu0->cpu0_STLB PREFETCH     ACCESS:          0 HIT:          0 MISS:          0 MSHR_MERGE:          0
cpu0->cpu0_STLB WRITE        ACCESS:          0 HIT:          0 MISS:          0 MSHR_MERGE:          0
cpu0->cpu0_STLB TRANSLATION  ACCESS:          0 HIT:          0 MISS:          0 MSHR_MERGE:          0
cpu0->cpu0_STLB PREFETCH REQUESTED:          0 ISSUED:          0 USEFUL:          0 USELESS:          0
cpu0->cpu0_STLB AVERAGE MISS LATENCY: 868.9 cycles
cpu0->cpu0_L2C TOTAL        ACCESS:    6272759 HIT:    1129027 MISS:    5143732 MSHR_MERGE:          0
cpu0->cpu0_L2C LOAD         ACCESS:     507947 HIT:         10 MISS:     507937 MSHR_MERGE:          0
cpu0->cpu0_L2C RFO          ACCESS:    2864496 HIT:     181120 MISS:    2683376 MSHR_MERGE:          0
cpu0->cpu0_L2C PREFETCH     ACCESS:          0 HIT:          0 MISS:          0 MSHR_MERGE:          0
cpu0->cpu0_L2C WRITE        ACCESS:    2864563 HIT:     947897 MISS:    1916666 MSHR_MERGE:          0
cpu0->cpu0_L2C TRANSLATION  ACCESS:      35753 HIT:          0 MISS:      35753 MSHR_MERGE:          0
cpu0->cpu0_L2C PREFETCH REQUESTED:          0 ISSUED:          0 USEFUL:          0 USELESS:          0
cpu0->cpu0_L2C AVERAGE MISS LATENCY: 199.1 cycles
cpu0->cpu0_L1I TOTAL        ACCESS:    8010242 HIT:    8010242 MISS:          0 MSHR_MERGE:          0
cpu0->cpu0_L1I LOAD         ACCESS:    8010242 HIT:    8010242 MISS:          0 MSHR_MERGE:          0
cpu0->cpu0_L1I RFO          ACCESS:          0 HIT:          0 MISS:          0 MSHR_MERGE:          0
cpu0->cpu0_L1I PREFETCH     ACCESS:          0 HIT:          0 MISS:          0 MSHR_MERGE:          0
cpu0->cpu0_L1I WRITE        ACCESS:          0 HIT:          0 MISS:          0 MSHR_MERGE:          0
cpu0->cpu0_L1I TRANSLATION  ACCESS:          0 HIT:          0 MISS:          0 MSHR_MERGE:          0
cpu0->cpu0_L1I PREFETCH REQUESTED:          0 ISSUED:          0 USEFUL:          0 USELESS:          0
cpu0->cpu0_L1I AVERAGE MISS LATENCY: - cycles
cpu0->cpu0_L1D TOTAL        ACCESS:   11916068 HIT:    7680428 MISS:    4235640 MSHR_MERGE:     827376
cpu0->cpu0_L1D LOAD         ACCESS:    3132033 HIT:    1928425 MISS:    1203608 MSHR_MERGE:     695661
cpu0->cpu0_L1D RFO          ACCESS:          0 HIT:          0 MISS:          0 MSHR_MERGE:          0
cpu0->cpu0_L1D PREFETCH     ACCESS:          0 HIT:          0 MISS:          0 MSHR_MERGE:          0
cpu0->cpu0_L1D WRITE        ACCESS:    8720497 HIT:    5724218 MISS:    2996279 MSHR_MERGE:     131715
cpu0->cpu0_L1D TRANSLATION  ACCESS:      63538 HIT:      27785 MISS:      35753 MSHR_MERGE:          0
cpu0->cpu0_L1D PREFETCH REQUESTED:          0 ISSUED:          0 USEFUL:          0 USELESS:          0
cpu0->cpu0_L1D AVERAGE MISS LATENCY: 307.8 cycles
cpu0->cpu0_ITLB TOTAL        ACCESS:    5962792 HIT:    5962792 MISS:          0 MSHR_MERGE:          0
cpu0->cpu0_ITLB LOAD         ACCESS:    5962792 HIT:    5962792 MISS:          0 MSHR_MERGE:          0
cpu0->cpu0_ITLB RFO          ACCESS:          0 HIT:          0 MISS:          0 MSHR_MERGE:          0
cpu0->cpu0_ITLB PREFETCH     ACCESS:          0 HIT:          0 MISS:          0 MSHR_MERGE:          0
cpu0->cpu0_ITLB WRITE        ACCESS:          0 HIT:          0 MISS:          0 MSHR_MERGE:          0
cpu0->cpu0_ITLB TRANSLATION  ACCESS:          0 HIT:          0 MISS:          0 MSHR_MERGE:          0
cpu0->cpu0_ITLB PREFETCH REQUESTED:          0 ISSUED:          0 USEFUL:          0 USELESS:          0
cpu0->cpu0_ITLB AVERAGE MISS LATENCY: - cycles
cpu0->cpu0_DTLB TOTAL        ACCESS:   11141579 HIT:   10976833 MISS:     164746 MSHR_MERGE:     106228
cpu0->cpu0_DTLB LOAD         ACCESS:   11141579 HIT:   10976833 MISS:     164746 MSHR_MERGE:     106228
cpu0->cpu0_DTLB RFO          ACCESS:          0 HIT:          0 MISS:          0 MSHR_MERGE:          0
cpu0->cpu0_DTLB PREFETCH     ACCESS:          0 HIT:          0 MISS:          0 MSHR_MERGE:          0
cpu0->cpu0_DTLB WRITE        ACCESS:          0 HIT:          0 MISS:          0 MSHR_MERGE:          0
cpu0->cpu0_DTLB TRANSLATION  ACCESS:          0 HIT:          0 MISS:          0 MSHR_MERGE:          0
cpu0->cpu0_DTLB PREFETCH REQUESTED:          0 ISSUED:          0 USEFUL:          0 USELESS:          0
cpu0->cpu0_DTLB AVERAGE MISS LATENCY: 477 cycles
cpu0->LLC TOTAL        ACCESS:    5910428 HIT:    3651507 MISS:    2258921 MSHR_MERGE:          0
cpu0->LLC LOAD         ACCESS:     507937 HIT:         12 MISS:     507925 MSHR_MERGE:          0
cpu0->LLC RFO          ACCESS:    2683374 HIT:    1159677 MISS:    1523697 MSHR_MERGE:          0
cpu0->LLC PREFETCH     ACCESS:          0 HIT:          0 MISS:          0 MSHR_MERGE:          0
cpu0->LLC WRITE        ACCESS:    2683364 HIT:    2491818 MISS:     191546 MSHR_MERGE:          0
cpu0->LLC TRANSLATION  ACCESS:      35753 HIT:          0 MISS:      35753 MSHR_MERGE:          0
cpu0->LLC PREFETCH REQUESTED:          0 ISSUED:          0 USEFUL:          0 USELESS:          0
cpu0->LLC AVERAGE MISS LATENCY: 428.1 cycles

DRAM Statistics

Channel 0 RQ ROW_BUFFER_HIT:     107378
  ROW_BUFFER_MISS:    1959997
  AVG DBUS CONGESTED CYCLE: 7.244
Channel 0 WQ ROW_BUFFER_HIT:     252190
  ROW_BUFFER_MISS:    1347686
  FULL:          0
Channel 0 REFRESHES ISSUED:       8567
