[VMEM] WARNING: physical memory size is smaller than virtual memory size.

*** ChampSim Multicore Out-of-Order Simulator ***
Warmup Instructions: 10000000
Simulation Instructions: 50000000
Number of CPUs: 1
Page size: 4096

Off-chip DRAM Size: 16 GiB Channels: 1 Width: 64-bit Data Rate: 3205 MT/s
Heartbeat CPU 0 instructions: 10000001 cycles: 2560982 heartbeat IPC: 3.905 cumulative IPC: 3.905 (Simulation time: 00 hr 00 min 19 sec)
Warmup finished CPU 0 instructions: 10000001 cycles: 2560982 cumulative IPC: 3.905 (Simulation time: 00 hr 00 min 19 sec)
Warmup complete CPU 0 instructions: 10000001 cycles: 2560982 cumulative IPC: 3.905 (Simulation time: 00 hr 00 min 19 sec)
Heartbeat CPU 0 instructions: 20000002 cycles: 9812697 heartbeat IPC: 1.379 cumulative IPC: 1.379 (Simulation time: 00 hr 00 min 50 sec)
Heartbeat CPU 0 instructions: 30000002 cycles: 17157560 heartbeat IPC: 1.361 cumulative IPC: 1.37 (Simulation time: 00 hr 01 min 21 sec)
Heartbeat CPU 0 instructions: 40000003 cycles: 24411614 heartbeat IPC: 1.379 cumulative IPC: 1.373 (Simulation time: 00 hr 01 min 52 sec)
Heartbeat CPU 0 instructions: 50000004 cycles: 31672967 heartbeat IPC: 1.377 cumulative IPC: 1.374 (Simulation time: 00 hr 02 min 23 sec)
Simulation finished CPU 0 instructions: 50000000 cycles: 36421141 cumulative IPC: 1.373 (Simulation time: 00 hr 02 min 55 sec)
Simulation complete CPU 0 instructions: 50000000 cycles: 36421141 cumulative IPC: 1.373 (Simulation time: 00 hr 02 min 55 sec)

ChampSim completed all CPUs

=== Simulation ===
CPU 0 runs traces/644.nab_s-12459B.champsimtrace.xz

Region of Interest Statistics

CPU 0 cumulative IPC: 1.373 instructions: 50000000 cycles: 36421141
CPU 0 Branch Prediction Accuracy: 90.93% MPKI: 12.97 Average ROB Occupancy at Mispredict: 41.23
Branch type MPKI
BRANCH_DIRECT_JUMP: 0.2759
BRANCH_INDIRECT: 0
BRANCH_CONDITIONAL: 12.69
BRANCH_DIRECT_CALL: 0
BRANCH_INDIRECT_CALL: 0
BRANCH_RETURN: 0

cpu0->cpu0_STLB TOTAL        ACCESS:      11012 HIT:      10872 MISS:        140 MSHR_MERGE:          0
cpu0->cpu0_STLB LOAD         ACCESS:      11012 HIT:      10872 MISS:        140 MSHR_MERGE:          0
cpu0->cpu0_STLB RFO          ACCESS:          0 HIT:          0 MISS:          0 MSHR_MERGE:          0
cpu0->cpu0_STLB PREFETCH     ACCESS:          0 HIT:          0 MISS:          0 MSHR_MERGE:          0
cpu0->cpu0_STLB WRITE        ACCESS:          0 HIT:          0 MISS:          0 MSHR_MERGE:          0
cpu0->cpu0_STLB TRANSLATION  ACCESS:          0 HIT:          0 MISS:          0 MSHR_MERGE:          0
cpu0->cpu0_STLB PREFETCH REQUESTED:          0 ISSUED:          0 USEFUL:          0 USELESS:          0
cpu0->cpu0_STLB AVERAGE MISS LATENCY: 696.5 cycles
cpu0->cpu0_L2C TOTAL        ACCESS:     332687 HIT:     282133 MISS:      50554 MSHR_MERGE:          0
cpu0->cpu0_L2C LOAD         ACCESS:     291489 HIT:     248825 MISS:      42664 MSHR_MERGE:          0
cpu0->cpu0_L2C RFO          ACCESS:      16385 HIT:       8700 MISS:       7685 MSHR_MERGE:          0
cpu0->cpu0_L2C PREFETCH     ACCESS:          0 HIT:          0 MISS:          0 MSHR_MERGE:          0
cpu0->cpu0_L2C WRITE        ACCESS:      24592 HIT:      24589 MISS:          3 MSHR_MERGE:          0
cpu0->cpu0_L2C TRANSLATION  ACCESS:        221 HIT:         19 MISS:        202 MSHR_MERGE:          0
cpu0->cpu0_L2C PREFETCH REQUESTED:          0 ISSUED:          0 USEFUL:          0 USELESS:          0
cpu0->cpu0_L2C AVERAGE MISS LATENCY: 44.47 cycles
cpu0->cpu0_L1I TOTAL        ACCESS:     127359 HIT:     127359 MISS:          0 MSHR_MERGE:          0
cpu0->cpu0_L1I LOAD         ACCESS:     127359 HIT:     127359 MISS:          0 MSHR_MERGE:          0
cpu0->cpu0_L1I RFO          ACCESS:          0 HIT:          0 MISS:          0 MSHR_MERGE:          0
cpu0->cpu0_L1I PREFETCH     ACCESS:          0 HIT:          0 MISS:          0 MSHR_MERGE:          0
cpu0->cpu0_L1I WRITE        ACCESS:          0 HIT:          0 MISS:          0 MSHR_MERGE:          0
cpu0->cpu0_L1I TRANSLATION  ACCESS:          0 HIT:          0 MISS:          0 MSHR_MERGE:          0
cpu0->cpu0_L1I PREFETCH REQUESTED:          0 ISSUED:          0 USEFUL:          0 USELESS:          0
cpu0->cpu0_L1I AVERAGE MISS LATENCY: - cycles
cpu0->cpu0_L1D TOTAL        ACCESS:   13950939 HIT:   13464483 MISS:     486456 MSHR_MERGE:     178361
cpu0->cpu0_L1D LOAD         ACCESS:    8944683 HIT:    8591748 MISS:     352935 MSHR_MERGE:      61446
cpu0->cpu0_L1D RFO          ACCESS:          0 HIT:          0 MISS:          0 MSHR_MERGE:          0
cpu0->cpu0_L1D PREFETCH     ACCESS:          0 HIT:          0 MISS:          0 MSHR_MERGE:          0
cpu0->cpu0_L1D WRITE        ACCESS:    5005976 HIT:    4872679 MISS:     133297 MSHR_MERGE:     116912
cpu0->cpu0_L1D TRANSLATION  ACCESS:        280 HIT:         56 MISS:        224 MSHR_MERGE:          3
cpu0->cpu0_L1D PREFETCH REQUESTED:          0 ISSUED:          0 USEFUL:          0 USELESS:          0
cpu0->cpu0_L1D AVERAGE MISS LATENCY: 15.47 cycles
cpu0->cpu0_ITLB TOTAL        ACCESS:     109887 HIT:     109887 MISS:          0 MSHR_MERGE:          0
cpu0->cpu0_ITLB LOAD         ACCESS:     109887 HIT:     109887 MISS:          0 MSHR_MERGE:          0
cpu0->cpu0_ITLB RFO          ACCESS:          0 HIT:          0 MISS:          0 MSHR_MERGE:          0
cpu0->cpu0_ITLB PREFETCH     ACCESS:          0 HIT:          0 MISS:          0 MSHR_MERGE:          0
cpu0->cpu0_ITLB WRITE        ACCESS:          0 HIT:          0 MISS:          0 MSHR_MERGE:          0
cpu0->cpu0_ITLB TRANSLATION  ACCESS:          0 HIT:          0 MISS:          0 MSHR_MERGE:          0
cpu0->cpu0_ITLB PREFETCH REQUESTED:          0 ISSUED:          0 USEFUL:          0 USELESS:          0
cpu0->cpu0_ITLB AVERAGE MISS LATENCY: - cycles
cpu0->cpu0_DTLB TOTAL        ACCESS:   13440372 HIT:   13426037 MISS:      14335 MSHR_MERGE:       3323
cpu0->cpu0_DTLB LOAD         ACCESS:   13440372 HIT:   13426037 MISS:      14335 MSHR_MERGE:       3323
cpu0->cpu0_DTLB RFO          ACCESS:          0 HIT:          0 MISS:          0 MSHR_MERGE:          0
cpu0->cpu0_DTLB PREFETCH     ACCESS:          0 HIT:          0 MISS:          0 MSHR_MERGE:          0
cpu0->cpu0_DTLB WRITE        ACCESS:          0 HIT:          0 MISS:          0 MSHR_MERGE:          0
cpu0->cpu0_DTLB TRANSLATION  ACCESS:          0 HIT:          0 MISS:          0 MSHR_MERGE:          0
cpu0->cpu0_DTLB PREFETCH REQUESTED:          0 ISSUED:          0 USEFUL:          0 USELESS:          0
cpu0->cpu0_DTLB AVERAGE MISS LATENCY: 13.87 cycles
cpu0->LLC TOTAL        ACCESS:      57197 HIT:      47800 MISS:       9397 MSHR_MERGE:          0
cpu0->LLC LOAD         ACCESS:      42664 HIT:      41028 MISS:       1636 MSHR_MERGE:          0
cpu0->LLC RFO          ACCESS:       7685 HIT:        111 MISS:       7574 MSHR_MERGE:          0
cpu0->LLC PREFETCH     ACCESS:          0 HIT:          0 MISS:          0 MSHR_MERGE:          0
cpu0->LLC WRITE        ACCESS:       6646 HIT:       6646 MISS:          0 MSHR_MERGE:          0
cpu0->LLC TRANSLATION  ACCESS:        202 HIT:         15 MISS:        187 MSHR_MERGE:          0
cpu0->LLC PREFETCH REQUESTED:          0 ISSUED:          0 USEFUL:          0 USELESS:          0
cpu0->LLC AVERAGE MISS LATENCY: 157.5 cycles

DRAM Statistics

Channel 0 RQ ROW_BUFFER_HIT:       2649
  ROW_BUFFER_MISS:       6748
  AVG DBUS CONGESTED CYCLE: 2.704
Channel 0 WQ ROW_BUFFER_HIT:          0
  ROW_BUFFER_MISS:          1
  FULL:          0
Channel 0 REFRESHES ISSUED:       3035
