[VMEM] WARNING: physical memory size is smaller than virtual memory size.

*** ChampSim Multicore Out-of-Order Simulator ***
Warmup Instructions: 10000000
Simulation Instructions: 50000000
Number of CPUs: 1
Page size: 4096

Off-chip DRAM Size: 16 GiB Channels: 1 Width: 64-bit Data Rate: 3205 MT/s
Heartbeat CPU 0 instructions: 10000002 cycles: 2820782 heartbeat IPC: 3.545 cumulative IPC: 3.545 (Simulation time: 00 hr 00 min 20 sec)
Warmup finished CPU 0 instructions: 10000002 cycles: 2820782 cumulative IPC: 3.545 (Simulation time: 00 hr 00 min 20 sec)
Warmup complete CPU 0 instructions: 10000002 cycles: 2820782 cumulative IPC: 3.545 (Simulation time: 00 hr 00 min 20 sec)
Heartbeat CPU 0 instructions: 20000003 cycles: 11032063 heartbeat IPC: 1.218 cumulative IPC: 1.218 (Simulation time: 00 hr 00 min 58 sec)
Heartbeat CPU 0 instructions: 30000007 cycles: 19239537 heartbeat IPC: 1.218 cumulative IPC: 1.218 (Simulation time: 00 hr 01 min 36 sec)
Heartbeat CPU 0 instructions: 40000011 cycles: 27473614 heartbeat IPC: 1.214 cumulative IPC: 1.217 (Simulation time: 00 hr 02 min 14 sec)
Heartbeat CPU 0 instructions: 50000015 cycles: 35469287 heartbeat IPC: 1.251 cumulative IPC: 1.225 (Simulation time: 00 hr 02 min 51 sec)
Simulation finished CPU 0 instructions: 50000004 cycles: 40615904 cumulative IPC: 1.231 (Simulation time: 00 hr 03 min 29 sec)
Simulation complete CPU 0 instructions: 50000004 cycles: 40615904 cumulative IPC: 1.231 (Simulation time: 00 hr 03 min 29 sec)

ChampSim completed all CPUs

=== Simulation ===
CPU 0 runs traces/628.pop2_s-17B.champsimtrace.xz

Region of Interest Statistics

CPU 0 cumulative IPC: 1.231 instructions: 50000004 cycles: 40615904
CPU 0 Branch Prediction Accuracy: 96.69% MPKI: 3.79 Average ROB Occupancy at Mispredict: 92.63
Branch type MPKI
BRANCH_DIRECT_JUMP: 0.05126
BRANCH_INDIRECT: 0.00164
BRANCH_CONDITIONAL: 3.737
BRANCH_DIRECT_CALL: 0
BRANCH_INDIRECT_CALL: 0
BRANCH_RETURN: 0

cpu0->cpu0_STLB TOTAL        ACCESS:      44006 HIT:      41541 MISS:       2465 MSHR_MERGE:          0
cpu0->cpu0_STLB LOAD         ACCESS:      44006 HIT:      41541 MISS:       2465 MSHR_MERGE:          0
cpu0->cpu0_STLB RFO          ACCESS:          0 HIT:          0 MISS:          0 MSHR_MERGE:          0
cpu0->cpu0_STLB PREFETCH     ACCESS:          0 HIT:          0 MISS:          0 MSHR_MERGE:          0
cpu0->cpu0_STLB WRITE        ACCESS:          0 HIT:          0 MISS:          0 MSHR_MERGE:          0
cpu0->cpu0_STLB TRANSLATION  ACCESS:          0 HIT:          0 MISS:          0 MSHR_MERGE:          0
cpu0->cpu0_STLB PREFETCH REQUESTED:          0 ISSUED:          0 USEFUL:          0 USELESS:          0
cpu0->cpu0_STLB AVERAGE MISS LATENCY: 745.8 cycles
cpu0->cpu0_L2C TOTAL        ACCESS:    1496744 HIT:    1036411 MISS:     460333 MSHR_MERGE:          0
cpu0->cpu0_L2C LOAD         ACCESS:     812766 HIT:     463440 MISS:     349326 MSHR_MERGE:          0
cpu0->cpu0_L2C RFO          ACCESS:     273801 HIT:     167854 MISS:     105947 MSHR_MERGE:          0
cpu0->cpu0_L2C PREFETCH     ACCESS:          0 HIT:          0 MISS:          0 MSHR_MERGE:          0
cpu0->cpu0_L2C WRITE        ACCESS:     404942 HIT:     404898 MISS:         44 MSHR_MERGE:          0
cpu0->cpu0_L2C TRANSLATION  ACCESS:       5235 HIT:        219 MISS:       5016 MSHR_MERGE:          0
cpu0->cpu0_L2C PREFETCH REQUESTED:          0 ISSUED:          0 USEFUL:          0 USELESS:          0
cpu0->cpu0_L2C AVERAGE MISS LATENCY: 78.75 cycles
cpu0->cpu0_L1I TOTAL        ACCESS:    3838618 HIT:    3728590 MISS:     110028 MSHR_MERGE:      50899
cpu0->cpu0_L1I LOAD         ACCESS:    3838618 HIT:    3728590 MISS:     110028 MSHR_MERGE:      50899
cpu0->cpu0_L1I RFO          ACCESS:          0 HIT:          0 MISS:          0 MSHR_MERGE:          0
cpu0->cpu0_L1I PREFETCH     ACCESS:          0 HIT:          0 MISS:          0 MSHR_MERGE:          0
cpu0->cpu0_L1I WRITE        ACCESS:          0 HIT:          0 MISS:          0 MSHR_MERGE:          0
cpu0->cpu0_L1I TRANSLATION  ACCESS:          0 HIT:          0 MISS:          0 MSHR_MERGE:          0
cpu0->cpu0_L1I PREFETCH REQUESTED:          0 ISSUED:          0 USEFUL:          0 USELESS:          0
cpu0->cpu0_L1I AVERAGE MISS LATENCY: 22.1 cycles
cpu0->cpu0_L1D TOTAL        ACCESS:   13022923 HIT:   10689931 MISS:    2332992 MSHR_MERGE:    1300315
cpu0->cpu0_L1D LOAD         ACCESS:    9229540 HIT:    7815790 MISS:    1413750 MSHR_MERGE:     660112
cpu0->cpu0_L1D RFO          ACCESS:          0 HIT:          0 MISS:          0 MSHR_MERGE:          0
cpu0->cpu0_L1D PREFETCH     ACCESS:          0 HIT:          0 MISS:          0 MSHR_MERGE:          0
cpu0->cpu0_L1D WRITE        ACCESS:    3787624 HIT:    2873770 MISS:     913854 MSHR_MERGE:     640050
cpu0->cpu0_L1D TRANSLATION  ACCESS:       5759 HIT:        371 MISS:       5388 MSHR_MERGE:        153
cpu0->cpu0_L1D PREFETCH REQUESTED:          0 ISSUED:          0 USEFUL:          0 USELESS:          0
cpu0->cpu0_L1D AVERAGE MISS LATENCY: 42.75 cycles
cpu0->cpu0_ITLB TOTAL        ACCESS:    3125521 HIT:    3119284 MISS:       6237 MSHR_MERGE:       3758
cpu0->cpu0_ITLB LOAD         ACCESS:    3125521 HIT:    3119284 MISS:       6237 MSHR_MERGE:       3758
cpu0->cpu0_ITLB RFO          ACCESS:          0 HIT:          0 MISS:          0 MSHR_MERGE:          0
cpu0->cpu0_ITLB PREFETCH     ACCESS:          0 HIT:          0 MISS:          0 MSHR_MERGE:          0
cpu0->cpu0_ITLB WRITE        ACCESS:          0 HIT:          0 MISS:          0 MSHR_MERGE:          0
cpu0->cpu0_ITLB TRANSLATION  ACCESS:          0 HIT:          0 MISS:          0 MSHR_MERGE:          0
cpu0->cpu0_ITLB PREFETCH REQUESTED:          0 ISSUED:          0 USEFUL:          0 USELESS:          0
cpu0->cpu0_ITLB AVERAGE MISS LATENCY: 5 cycles
cpu0->cpu0_DTLB TOTAL        ACCESS:   12531223 HIT:   12460038 MISS:      71185 MSHR_MERGE:      29658
cpu0->cpu0_DTLB LOAD         ACCESS:   12531223 HIT:   12460038 MISS:      71185 MSHR_MERGE:      29658
cpu0->cpu0_DTLB RFO          ACCESS:          0 HIT:          0 MISS:          0 MSHR_MERGE:          0
cpu0->cpu0_DTLB PREFETCH     ACCESS:          0 HIT:          0 MISS:          0 MSHR_MERGE:          0
cpu0->cpu0_DTLB WRITE        ACCESS:          0 HIT:          0 MISS:          0 MSHR_MERGE:          0
cpu0->cpu0_DTLB TRANSLATION  ACCESS:          0 HIT:          0 MISS:          0 MSHR_MERGE:          0
cpu0->cpu0_DTLB PREFETCH REQUESTED:          0 ISSUED:          0 USEFUL:          0 USELESS:          0
cpu0->cpu0_DTLB AVERAGE MISS LATENCY: 49.34 cycles
cpu0->LLC TOTAL        ACCESS:     632227 HIT:     478006 MISS:     154221 MSHR_MERGE:          0
cpu0->LLC LOAD         ACCESS:     349326 HIT:     210643 MISS:     138683 MSHR_MERGE:          0
cpu0->LLC RFO          ACCESS:     105947 HIT:      95090 MISS:      10857 MSHR_MERGE:          0
cpu0->LLC PREFETCH     ACCESS:          0 HIT:          0 MISS:          0 MSHR_MERGE:          0
cpu0->LLC WRITE        ACCESS:     171938 HIT:     170795 MISS:       1143 MSHR_MERGE:          0
cpu0->LLC TRANSLATION  ACCESS:       5016 HIT:       1478 MISS:       3538 MSHR_MERGE:          0
cpu0->LLC PREFETCH REQUESTED:          0 ISSUED:          0 USEFUL:          0 USELESS:          0
cpu0->LLC AVERAGE MISS LATENCY: 189.3 cycles

DRAM Statistics

Channel 0 RQ ROW_BUFFER_HIT:       4257
  ROW_BUFFER_MISS:     148821
  AVG DBUS CONGESTED CYCLE: 15.73
Channel 0 WQ ROW_BUFFER_HIT:      12077
  ROW_BUFFER_MISS:      32507
  FULL:          0
Channel 0 REFRESHES ISSUED:       3384
