[VMEM] WARNING: physical memory size is smaller than virtual memory size.

*** ChampSim Multicore Out-of-Order Simulator ***
Warmup Instructions: 10000000
Simulation Instructions: 50000000
Number of CPUs: 1
Page size: 4096

Off-chip DRAM Size: 16 GiB Channels: 1 Width: 64-bit Data Rate: 3205 MT/s
Heartbeat CPU 0 instructions: 10000002 cycles: 2777504 heartbeat IPC: 3.6 cumulative IPC: 3.6 (Simulation time: 00 hr 00 min 21 sec)
Warmup finished CPU 0 instructions: 10000002 cycles: 2777504 cumulative IPC: 3.6 (Simulation time: 00 hr 00 min 21 sec)
Warmup complete CPU 0 instructions: 10000002 cycles: 2777504 cumulative IPC: 3.6 (Simulation time: 00 hr 00 min 21 sec)
Heartbeat CPU 0 instructions: 20000005 cycles: 12113228 heartbeat IPC: 1.071 cumulative IPC: 1.071 (Simulation time: 00 hr 01 min 16 sec)
Heartbeat CPU 0 instructions: 30000007 cycles: 19340203 heartbeat IPC: 1.384 cumulative IPC: 1.208 (Simulation time: 00 hr 02 min 02 sec)
Heartbeat CPU 0 instructions: 40000009 cycles: 28758057 heartbeat IPC: 1.062 cumulative IPC: 1.155 (Simulation time: 00 hr 02 min 58 sec)
Heartbeat CPU 0 instructions: 50000011 cycles: 35864484 heartbeat IPC: 1.407 cumulative IPC: 1.209 (Simulation time: 00 hr 03 min 43 sec)
Simulation finished CPU 0 instructions: 50000001 cycles: 42473331 cumulative IPC: 1.177 (Simulation time: 00 hr 04 min 39 sec)
Simulation complete CPU 0 instructions: 50000001 cycles: 42473331 cumulative IPC: 1.177 (Simulation time: 00 hr 04 min 39 sec)

ChampSim completed all CPUs

=== Simulation ===
CPU 0 runs traces/654.roms_s-293B.champsimtrace.xz

Region of Interest Statistics

CPU 0 cumulative IPC: 1.177 instructions: 50000001 cycles: 42473331
CPU 0 Branch Prediction Accuracy: 99.8% MPKI: 0.02602 Average ROB Occupancy at Mispredict: 336.1
Branch type MPKI
BRANCH_DIRECT_JUMP: 0
BRANCH_INDIRECT: 0
BRANCH_CONDITIONAL: 0.02602
BRANCH_DIRECT_CALL: 0
BRANCH_INDIRECT_CALL: 0
BRANCH_RETURN: 0

cpu0->cpu0_STLB TOTAL        ACCESS:      14273 HIT:       9233 MISS:       5040 MSHR_MERGE:          0
cpu0->cpu0_STLB LOAD         ACCESS:      14273 HIT:       9233 MISS:       5040 MSHR_MERGE:          0
cpu0->cpu0_STLB RFO          ACCESS:          0 HIT:          0 MISS:          0 MSHR_MERGE:          0
cpu0->cpu0_STLB PREFETCH     ACCESS:          0 HIT:          0 MISS:          0 MSHR_MERGE:          0
cpu0->cpu0_STLB WRITE        ACCESS:          0 HIT:          0 MISS:          0 MSHR_MERGE:          0
cpu0->cpu0_STLB TRANSLATION  ACCESS:          0 HIT:          0 MISS:          0 MSHR_MERGE:          0
cpu0->cpu0_STLB PREFETCH REQUESTED:          0 ISSUED:          0 USEFUL:          0 USELESS:          0
cpu0->cpu0_STLB AVERAGE MISS LATENCY: 888.1 cycles
cpu0->cpu0_L2C TOTAL        ACCESS:     878782 HIT:     357235 MISS:     521547 MSHR_MERGE:          0
cpu0->cpu0_L2C LOAD         ACCESS:     366064 HIT:     103868 MISS:     262196 MSHR_MERGE:          0
cpu0->cpu0_L2C RFO          ACCESS:     250785 HIT:        958 MISS:     249827 MSHR_MERGE:          0
cpu0->cpu0_L2C PREFETCH     ACCESS:          0 HIT:          0 MISS:          0 MSHR_MERGE:          0
cpu0->cpu0_L2C WRITE        ACCESS:     251769 HIT:     251384 MISS:        385 MSHR_MERGE:          0
cpu0->cpu0_L2C TRANSLATION  ACCESS:      10164 HIT:       1025 MISS:       9139 MSHR_MERGE:          0
cpu0->cpu0_L2C PREFETCH REQUESTED:          0 ISSUED:          0 USEFUL:          0 USELESS:          0
cpu0->cpu0_L2C AVERAGE MISS LATENCY: 171.3 cycles
cpu0->cpu0_L1I TOTAL        ACCESS:   10012177 HIT:   10012177 MISS:          0 MSHR_MERGE:          0
cpu0->cpu0_L1I LOAD         ACCESS:   10012177 HIT:   10012177 MISS:          0 MSHR_MERGE:          0
cpu0->cpu0_L1I RFO          ACCESS:          0 HIT:          0 MISS:          0 MSHR_MERGE:          0
cpu0->cpu0_L1I PREFETCH     ACCESS:          0 HIT:          0 MISS:          0 MSHR_MERGE:          0
cpu0->cpu0_L1I WRITE        ACCESS:          0 HIT:          0 MISS:          0 MSHR_MERGE:          0
cpu0->cpu0_L1I TRANSLATION  ACCESS:          0 HIT:          0 MISS:          0 MSHR_MERGE:          0
cpu0->cpu0_L1I PREFETCH REQUESTED:          0 ISSUED:          0 USEFUL:          0 USELESS:          0
cpu0->cpu0_L1I AVERAGE MISS LATENCY: - cycles
cpu0->cpu0_L1D TOTAL        ACCESS:   15658813 HIT:   14161173 MISS:    1497640 MSHR_MERGE:     870576
cpu0->cpu0_L1D LOAD         ACCESS:   11022174 HIT:   10395477 MISS:     626697 MSHR_MERGE:     260633
cpu0->cpu0_L1D RFO          ACCESS:          0 HIT:          0 MISS:          0 MSHR_MERGE:          0
cpu0->cpu0_L1D PREFETCH     ACCESS:          0 HIT:          0 MISS:          0 MSHR_MERGE:          0
cpu0->cpu0_L1D WRITE        ACCESS:    4623968 HIT:    3763239 MISS:     860729 MSHR_MERGE:     609893
cpu0->cpu0_L1D TRANSLATION  ACCESS:      12671 HIT:       2457 MISS:      10214 MSHR_MERGE:         50
cpu0->cpu0_L1D PREFETCH REQUESTED:          0 ISSUED:          0 USEFUL:          0 USELESS:          0
cpu0->cpu0_L1D AVERAGE MISS LATENCY: 151.3 cycles
cpu0->cpu0_ITLB TOTAL        ACCESS:    7428908 HIT:    7428908 MISS:          0 MSHR_MERGE:          0
cpu0->cpu0_ITLB LOAD         ACCESS:    7428908 HIT:    7428908 MISS:          0 MSHR_MERGE:          0
cpu0->cpu0_ITLB RFO          ACCESS:          0 HIT:          0 MISS:          0 MSHR_MERGE:          0
cpu0->cpu0_ITLB PREFETCH     ACCESS:          0 HIT:          0 MISS:          0 MSHR_MERGE:          0
cpu0->cpu0_ITLB WRITE        ACCESS:          0 HIT:          0 MISS:          0 MSHR_MERGE:          0
cpu0->cpu0_ITLB TRANSLATION  ACCESS:          0 HIT:          0 MISS:          0 MSHR_MERGE:          0
cpu0->cpu0_ITLB PREFETCH REQUESTED:          0 ISSUED:          0 USEFUL:          0 USELESS:          0
cpu0->cpu0_ITLB AVERAGE MISS LATENCY: - cycles
cpu0->cpu0_DTLB TOTAL        ACCESS:   14814131 HIT:   14775775 MISS:      38356 MSHR_MERGE:      24083
cpu0->cpu0_DTLB LOAD         ACCESS:   14814131 HIT:   14775775 MISS:      38356 MSHR_MERGE:      24083
cpu0->cpu0_DTLB RFO          ACCESS:          0 HIT:          0 MISS:          0 MSHR_MERGE:          0
cpu0->cpu0_DTLB PREFETCH     ACCESS:          0 HIT:          0 MISS:          0 MSHR_MERGE:          0
cpu0->cpu0_DTLB WRITE        ACCESS:          0 HIT:          0 MISS:          0 MSHR_MERGE:          0
cpu0->cpu0_DTLB TRANSLATION  ACCESS:          0 HIT:          0 MISS:          0 MSHR_MERGE:          0
cpu0->cpu0_DTLB PREFETCH REQUESTED:          0 ISSUED:          0 USEFUL:          0 USELESS:          0
cpu0->cpu0_DTLB AVERAGE MISS LATENCY: 319 cycles
cpu0->LLC TOTAL        ACCESS:     773476 HIT:     430486 MISS:     342990 MSHR_MERGE:          0
cpu0->LLC LOAD         ACCESS:     262196 HIT:     119342 MISS:     142854 MSHR_MERGE:          0
cpu0->LLC RFO          ACCESS:     249827 HIT:      58779 MISS:     191048 MSHR_MERGE:          0
cpu0->LLC PREFETCH     ACCESS:          0 HIT:          0 MISS:          0 MSHR_MERGE:          0
cpu0->LLC WRITE        ACCESS:     252314 HIT:     252266 MISS:         48 MSHR_MERGE:          0
cpu0->LLC TRANSLATION  ACCESS:       9139 HIT:         99 MISS:       9040 MSHR_MERGE:          0
cpu0->LLC PREFETCH REQUESTED:          0 ISSUED:          0 USEFUL:          0 USELESS:          0
cpu0->LLC AVERAGE MISS LATENCY: 236.7 cycles

DRAM Statistics

Channel 0 RQ ROW_BUFFER_HIT:       1649
  ROW_BUFFER_MISS:     340586
  AVG DBUS CONGESTED CYCLE: 6.966
Channel 0 WQ ROW_BUFFER_HIT:      64768
  ROW_BUFFER_MISS:     150560
  FULL:          0
Channel 0 REFRESHES ISSUED:       3539
