[VMEM] WARNING: physical memory size is smaller than virtual memory size.

*** ChampSim Multicore Out-of-Order Simulator ***
Warmup Instructions: 10000000
Simulation Instructions: 50000000
Number of CPUs: 1
Page size: 4096

Off-chip DRAM Size: 16 GiB Channels: 1 Width: 64-bit Data Rate: 3205 MT/s
Heartbeat CPU 0 instructions: 10000002 cycles: 2776759 heartbeat IPC: 3.601 cumulative IPC: 3.601 (Simulation time: 00 hr 00 min 20 sec)
Warmup finished CPU 0 instructions: 10000002 cycles: 2776759 cumulative IPC: 3.601 (Simulation time: 00 hr 00 min 20 sec)
Warmup complete CPU 0 instructions: 10000002 cycles: 2776759 cumulative IPC: 3.601 (Simulation time: 00 hr 00 min 20 sec)
Heartbeat CPU 0 instructions: 20000005 cycles: 10974198 heartbeat IPC: 1.22 cumulative IPC: 1.22 (Simulation time: 00 hr 01 min 11 sec)
Heartbeat CPU 0 instructions: 30000007 cycles: 17532299 heartbeat IPC: 1.525 cumulative IPC: 1.355 (Simulation time: 00 hr 01 min 53 sec)
Heartbeat CPU 0 instructions: 40000010 cycles: 25719182 heartbeat IPC: 1.221 cumulative IPC: 1.308 (Simulation time: 00 hr 02 min 44 sec)
Heartbeat CPU 0 instructions: 50000012 cycles: 32257125 heartbeat IPC: 1.53 cumulative IPC: 1.357 (Simulation time: 00 hr 03 min 26 sec)
Simulation finished CPU 0 instructions: 50000001 cycles: 37653903 cumulative IPC: 1.328 (Simulation time: 00 hr 04 min 17 sec)
Simulation complete CPU 0 instructions: 50000001 cycles: 37653903 cumulative IPC: 1.328 (Simulation time: 00 hr 04 min 17 sec)

ChampSim completed all CPUs

=== Simulation ===
CPU 0 runs traces/654.roms_s-293B.champsimtrace.xz

Region of Interest Statistics

CPU 0 cumulative IPC: 1.328 instructions: 50000001 cycles: 37653903
CPU 0 Branch Prediction Accuracy: 99.8% MPKI: 0.02602 Average ROB Occupancy at Mispredict: 336.8
Branch type MPKI
BRANCH_DIRECT_JUMP: 0
BRANCH_INDIRECT: 0
BRANCH_CONDITIONAL: 0.02602
BRANCH_DIRECT_CALL: 0
BRANCH_INDIRECT_CALL: 0
BRANCH_RETURN: 0

cpu0->cpu0_STLB TOTAL        ACCESS:      14326 HIT:       9286 MISS:       5040 MSHR_MERGE:          0
cpu0->cpu0_STLB LOAD         ACCESS:      14326 HIT:       9286 MISS:       5040 MSHR_MERGE:          0
cpu0->cpu0_STLB RFO          ACCESS:          0 HIT:          0 MISS:          0 MSHR_MERGE:          0
cpu0->cpu0_STLB PREFETCH     ACCESS:          0 HIT:          0 MISS:          0 MSHR_MERGE:          0
cpu0->cpu0_STLB WRITE        ACCESS:          0 HIT:          0 MISS:          0 MSHR_MERGE:          0
cpu0->cpu0_STLB TRANSLATION  ACCESS:          0 HIT:          0 MISS:          0 MSHR_MERGE:          0
cpu0->cpu0_STLB PREFETCH REQUESTED:          0 ISSUED:          0 USEFUL:          0 USELESS:          0
cpu0->cpu0_STLB AVERAGE MISS LATENCY: 886.2 cycles
cpu0->cpu0_L2C TOTAL        ACCESS:     878989 HIT:     251475 MISS:     627514 MSHR_MERGE:          0
cpu0->cpu0_L2C LOAD         ACCESS:     366271 HIT:      99966 MISS:     266305 MSHR_MERGE:          0
cpu0->cpu0_L2C RFO          ACCESS:     250789 HIT:      34943 MISS:     215846 MSHR_MERGE:          0
cpu0->cpu0_L2C PREFETCH     ACCESS:          0 HIT:          0 MISS:          0 MSHR_MERGE:          0
cpu0->cpu0_L2C WRITE        ACCESS:     251769 HIT:     116115 MISS:     135654 MSHR_MERGE:          0
cpu0->cpu0_L2C TRANSLATION  ACCESS:      10160 HIT:        451 MISS:       9709 MSHR_MERGE:          0
cpu0->cpu0_L2C PREFETCH REQUESTED:          0 ISSUED:          0 USEFUL:          0 USELESS:          0
cpu0->cpu0_L2C AVERAGE MISS LATENCY: 122 cycles
cpu0->cpu0_L1I TOTAL        ACCESS:   10059639 HIT:   10059639 MISS:          0 MSHR_MERGE:          0
cpu0->cpu0_L1I LOAD         ACCESS:   10059639 HIT:   10059639 MISS:          0 MSHR_MERGE:          0
cpu0->cpu0_L1I RFO          ACCESS:          0 HIT:          0 MISS:          0 MSHR_MERGE:          0
cpu0->cpu0_L1I PREFETCH     ACCESS:          0 HIT:          0 MISS:          0 MSHR_MERGE:          0
cpu0->cpu0_L1I WRITE        ACCESS:          0 HIT:          0 MISS:          0 MSHR_MERGE:          0
cpu0->cpu0_L1I TRANSLATION  ACCESS:          0 HIT:          0 MISS:          0 MSHR_MERGE:          0
cpu0->cpu0_L1I PREFETCH REQUESTED:          0 ISSUED:          0 USEFUL:          0 USELESS:          0
cpu0->cpu0_L1I AVERAGE MISS LATENCY: - cycles
cpu0->cpu0_L1D TOTAL        ACCESS:   15654743 HIT:   14187138 MISS:    1467605 MSHR_MERGE:     840338
cpu0->cpu0_L1D LOAD         ACCESS:   11018106 HIT:   10404737 MISS:     613369 MSHR_MERGE:     247098
cpu0->cpu0_L1D RFO          ACCESS:          0 HIT:          0 MISS:          0 MSHR_MERGE:          0
cpu0->cpu0_L1D PREFETCH     ACCESS:          0 HIT:          0 MISS:          0 MSHR_MERGE:          0
cpu0->cpu0_L1D WRITE        ACCESS:    4623968 HIT:    3779938 MISS:     844030 MSHR_MERGE:     593194
cpu0->cpu0_L1D TRANSLATION  ACCESS:      12669 HIT:       2463 MISS:      10206 MSHR_MERGE:         46
cpu0->cpu0_L1D PREFETCH REQUESTED:          0 ISSUED:          0 USEFUL:          0 USELESS:          0
cpu0->cpu0_L1D AVERAGE MISS LATENCY: 130 cycles
cpu0->cpu0_ITLB TOTAL        ACCESS:    7490791 HIT:    7490791 MISS:          0 MSHR_MERGE:          0
cpu0->cpu0_ITLB LOAD         ACCESS:    7490791 HIT:    7490791 MISS:          0 MSHR_MERGE:          0
cpu0->cpu0_ITLB RFO          ACCESS:          0 HIT:          0 MISS:          0 MSHR_MERGE:          0
cpu0->cpu0_ITLB PREFETCH     ACCESS:          0 HIT:          0 MISS:          0 MSHR_MERGE:          0
cpu0->cpu0_ITLB WRITE        ACCESS:          0 HIT:          0 MISS:          0 MSHR_MERGE:          0
cpu0->cpu0_ITLB TRANSLATION  ACCESS:          0 HIT:          0 MISS:          0 MSHR_MERGE:          0
cpu0->cpu0_ITLB PREFETCH REQUESTED:          0 ISSUED:          0 USEFUL:          0 USELESS:          0
cpu0->cpu0_ITLB AVERAGE MISS LATENCY: - cycles
cpu0->cpu0_DTLB TOTAL        ACCESS:   14809580 HIT:   14769914 MISS:      39666 MSHR_MERGE:      25340
cpu0->cpu0_DTLB LOAD         ACCESS:   14809580 HIT:   14769914 MISS:      39666 MSHR_MERGE:      25340
cpu0->cpu0_DTLB RFO          ACCESS:          0 HIT:          0 MISS:          0 MSHR_MERGE:          0
cpu0->cpu0_DTLB PREFETCH     ACCESS:          0 HIT:          0 MISS:          0 MSHR_MERGE:          0
cpu0->cpu0_DTLB WRITE        ACCESS:          0 HIT:          0 MISS:          0 MSHR_MERGE:          0
cpu0->cpu0_DTLB TRANSLATION  ACCESS:          0 HIT:          0 MISS:          0 MSHR_MERGE:          0
cpu0->cpu0_DTLB PREFETCH REQUESTED:          0 ISSUED:          0 USEFUL:          0 USELESS:          0
cpu0->cpu0_DTLB AVERAGE MISS LATENCY: 317.1 cycles
cpu0->LLC TOTAL        ACCESS:     726431 HIT:     414422 MISS:     312009 MSHR_MERGE:          0
cpu0->LLC LOAD         ACCESS:     266305 HIT:     150600 MISS:     115705 MSHR_MERGE:          0
cpu0->LLC RFO          ACCESS:     215846 HIT:      52317 MISS:     163529 MSHR_MERGE:          0
cpu0->LLC PREFETCH     ACCESS:          0 HIT:          0 MISS:          0 MSHR_MERGE:          0
cpu0->LLC WRITE        ACCESS:     234571 HIT:     210739 MISS:      23832 MSHR_MERGE:          0
cpu0->LLC TRANSLATION  ACCESS:       9709 HIT:        766 MISS:       8943 MSHR_MERGE:          0
cpu0->LLC PREFETCH REQUESTED:          0 ISSUED:          0 USEFUL:          0 USELESS:          0
cpu0->LLC AVERAGE MISS LATENCY: 219.7 cycles

DRAM Statistics

Channel 0 RQ ROW_BUFFER_HIT:       2193
  ROW_BUFFER_MISS:     285515
  AVG DBUS CONGESTED CYCLE: 7.697
Channel 0 WQ ROW_BUFFER_HIT:      55983
  ROW_BUFFER_MISS:     136052
  FULL:          0
Channel 0 REFRESHES ISSUED:       3138
