[VMEM] WARNING: physical memory size is smaller than virtual memory size.

*** ChampSim Multicore Out-of-Order Simulator ***
Warmup Instructions: 10000000
Simulation Instructions: 50000000
Number of CPUs: 1
Page size: 4096

Off-chip DRAM Size: 16 GiB Channels: 1 Width: 64-bit Data Rate: 3205 MT/s
Heartbeat CPU 0 instructions: 10000002 cycles: 2820704 heartbeat IPC: 3.545 cumulative IPC: 3.545 (Simulation time: 00 hr 00 min 20 sec)
Warmup finished CPU 0 instructions: 10000002 cycles: 2820704 cumulative IPC: 3.545 (Simulation time: 00 hr 00 min 20 sec)
Warmup complete CPU 0 instructions: 10000002 cycles: 2820704 cumulative IPC: 3.545 (Simulation time: 00 hr 00 min 20 sec)
Heartbeat CPU 0 instructions: 20000003 cycles: 11060472 heartbeat IPC: 1.214 cumulative IPC: 1.214 (Simulation time: 00 hr 01 min 00 sec)
Heartbeat CPU 0 instructions: 30000007 cycles: 19337898 heartbeat IPC: 1.208 cumulative IPC: 1.211 (Simulation time: 00 hr 01 min 40 sec)
Heartbeat CPU 0 instructions: 40000011 cycles: 27620444 heartbeat IPC: 1.207 cumulative IPC: 1.21 (Simulation time: 00 hr 02 min 20 sec)
Heartbeat CPU 0 instructions: 50000015 cycles: 35664679 heartbeat IPC: 1.243 cumulative IPC: 1.218 (Simulation time: 00 hr 03 min 00 sec)
Simulation finished CPU 0 instructions: 50000004 cycles: 40888852 cumulative IPC: 1.223 (Simulation time: 00 hr 03 min 39 sec)
Simulation complete CPU 0 instructions: 50000004 cycles: 40888852 cumulative IPC: 1.223 (Simulation time: 00 hr 03 min 39 sec)

ChampSim completed all CPUs

=== Simulation ===
CPU 0 runs traces/628.pop2_s-17B.champsimtrace.xz

Region of Interest Statistics

CPU 0 cumulative IPC: 1.223 instructions: 50000004 cycles: 40888852
CPU 0 Branch Prediction Accuracy: 96.69% MPKI: 3.79 Average ROB Occupancy at Mispredict: 92.68
Branch type MPKI
BRANCH_DIRECT_JUMP: 0.05126
BRANCH_INDIRECT: 0.00164
BRANCH_CONDITIONAL: 3.737
BRANCH_DIRECT_CALL: 0
BRANCH_INDIRECT_CALL: 0
BRANCH_RETURN: 0

cpu0->cpu0_STLB TOTAL        ACCESS:      43988 HIT:      41524 MISS:       2464 MSHR_MERGE:          0
cpu0->cpu0_STLB LOAD         ACCESS:      43988 HIT:      41524 MISS:       2464 MSHR_MERGE:          0
cpu0->cpu0_STLB RFO          ACCESS:          0 HIT:          0 MISS:          0 MSHR_MERGE:          0
cpu0->cpu0_STLB PREFETCH     ACCESS:          0 HIT:          0 MISS:          0 MSHR_MERGE:          0
cpu0->cpu0_STLB WRITE        ACCESS:          0 HIT:          0 MISS:          0 MSHR_MERGE:          0
cpu0->cpu0_STLB TRANSLATION  ACCESS:          0 HIT:          0 MISS:          0 MSHR_MERGE:          0
cpu0->cpu0_STLB PREFETCH REQUESTED:          0 ISSUED:          0 USEFUL:          0 USELESS:          0
cpu0->cpu0_STLB AVERAGE MISS LATENCY: 741.4 cycles
cpu0->cpu0_L2C TOTAL        ACCESS:    1496657 HIT:    1012358 MISS:     484299 MSHR_MERGE:          0
cpu0->cpu0_L2C LOAD         ACCESS:     812636 HIT:     425871 MISS:     386765 MSHR_MERGE:          0
cpu0->cpu0_L2C RFO          ACCESS:     273807 HIT:     222430 MISS:      51377 MSHR_MERGE:          0
cpu0->cpu0_L2C PREFETCH     ACCESS:          0 HIT:          0 MISS:          0 MSHR_MERGE:          0
cpu0->cpu0_L2C WRITE        ACCESS:     404989 HIT:     363888 MISS:      41101 MSHR_MERGE:          0
cpu0->cpu0_L2C TRANSLATION  ACCESS:       5225 HIT:        169 MISS:       5056 MSHR_MERGE:          0
cpu0->cpu0_L2C PREFETCH REQUESTED:          0 ISSUED:          0 USEFUL:          0 USELESS:          0
cpu0->cpu0_L2C AVERAGE MISS LATENCY: 75.12 cycles
cpu0->cpu0_L1I TOTAL        ACCESS:    3849045 HIT:    3740482 MISS:     108563 MSHR_MERGE:      49434
cpu0->cpu0_L1I LOAD         ACCESS:    3849045 HIT:    3740482 MISS:     108563 MSHR_MERGE:      49434
cpu0->cpu0_L1I RFO          ACCESS:          0 HIT:          0 MISS:          0 MSHR_MERGE:          0
cpu0->cpu0_L1I PREFETCH     ACCESS:          0 HIT:          0 MISS:          0 MSHR_MERGE:          0
cpu0->cpu0_L1I WRITE        ACCESS:          0 HIT:          0 MISS:          0 MSHR_MERGE:          0
cpu0->cpu0_L1I TRANSLATION  ACCESS:          0 HIT:          0 MISS:          0 MSHR_MERGE:          0
cpu0->cpu0_L1I PREFETCH REQUESTED:          0 ISSUED:          0 USEFUL:          0 USELESS:          0
cpu0->cpu0_L1I AVERAGE MISS LATENCY: 20.74 cycles
cpu0->cpu0_L1D TOTAL        ACCESS:   13016237 HIT:   10707184 MISS:    2309053 MSHR_MERGE:    1276512
cpu0->cpu0_L1D LOAD         ACCESS:    9222959 HIT:    7788217 MISS:    1434742 MSHR_MERGE:     681234
cpu0->cpu0_L1D RFO          ACCESS:          0 HIT:          0 MISS:          0 MSHR_MERGE:          0
cpu0->cpu0_L1D PREFETCH     ACCESS:          0 HIT:          0 MISS:          0 MSHR_MERGE:          0
cpu0->cpu0_L1D WRITE        ACCESS:    3787532 HIT:    2918595 MISS:     868937 MSHR_MERGE:     595129
cpu0->cpu0_L1D TRANSLATION  ACCESS:       5746 HIT:        372 MISS:       5374 MSHR_MERGE:        149
cpu0->cpu0_L1D PREFETCH REQUESTED:          0 ISSUED:          0 USEFUL:          0 USELESS:          0
cpu0->cpu0_L1D AVERAGE MISS LATENCY: 42.78 cycles
cpu0->cpu0_ITLB TOTAL        ACCESS:    3137655 HIT:    3131418 MISS:       6237 MSHR_MERGE:       3758
cpu0->cpu0_ITLB LOAD         ACCESS:    3137655 HIT:    3131418 MISS:       6237 MSHR_MERGE:       3758
cpu0->cpu0_ITLB RFO          ACCESS:          0 HIT:          0 MISS:          0 MSHR_MERGE:          0
cpu0->cpu0_ITLB PREFETCH     ACCESS:          0 HIT:          0 MISS:          0 MSHR_MERGE:          0
cpu0->cpu0_ITLB WRITE        ACCESS:          0 HIT:          0 MISS:          0 MSHR_MERGE:          0
cpu0->cpu0_ITLB TRANSLATION  ACCESS:          0 HIT:          0 MISS:          0 MSHR_MERGE:          0
cpu0->cpu0_ITLB PREFETCH REQUESTED:          0 ISSUED:          0 USEFUL:          0 USELESS:          0
cpu0->cpu0_ITLB AVERAGE MISS LATENCY: 5 cycles
cpu0->cpu0_DTLB TOTAL        ACCESS:   12523329 HIT:   12451732 MISS:      71597 MSHR_MERGE:      30088
cpu0->cpu0_DTLB LOAD         ACCESS:   12523329 HIT:   12451732 MISS:      71597 MSHR_MERGE:      30088
cpu0->cpu0_DTLB RFO          ACCESS:          0 HIT:          0 MISS:          0 MSHR_MERGE:          0
cpu0->cpu0_DTLB PREFETCH     ACCESS:          0 HIT:          0 MISS:          0 MSHR_MERGE:          0
cpu0->cpu0_DTLB WRITE        ACCESS:          0 HIT:          0 MISS:          0 MSHR_MERGE:          0
cpu0->cpu0_DTLB TRANSLATION  ACCESS:          0 HIT:          0 MISS:          0 MSHR_MERGE:          0
cpu0->cpu0_DTLB PREFETCH REQUESTED:          0 ISSUED:          0 USEFUL:          0 USELESS:          0
cpu0->cpu0_DTLB AVERAGE MISS LATENCY: 49.07 cycles
cpu0->LLC TOTAL        ACCESS:     548972 HIT:     394598 MISS:     154374 MSHR_MERGE:          0
cpu0->LLC LOAD         ACCESS:     386765 HIT:     247589 MISS:     139176 MSHR_MERGE:          0
cpu0->LLC RFO          ACCESS:      51377 HIT:      40572 MISS:      10805 MSHR_MERGE:          0
cpu0->LLC PREFETCH     ACCESS:          0 HIT:          0 MISS:          0 MSHR_MERGE:          0
cpu0->LLC WRITE        ACCESS:     105774 HIT:     104862 MISS:        912 MSHR_MERGE:          0
cpu0->LLC TRANSLATION  ACCESS:       5056 HIT:       1575 MISS:       3481 MSHR_MERGE:          0
cpu0->LLC PREFETCH REQUESTED:          0 ISSUED:          0 USEFUL:          0 USELESS:          0
cpu0->LLC AVERAGE MISS LATENCY: 190.6 cycles

DRAM Statistics

Channel 0 RQ ROW_BUFFER_HIT:       4158
  ROW_BUFFER_MISS:     149304
  AVG DBUS CONGESTED CYCLE: 15.88
Channel 0 WQ ROW_BUFFER_HIT:      11951
  ROW_BUFFER_MISS:      31819
  FULL:          0
Channel 0 REFRESHES ISSUED:       3407
