[VMEM] WARNING: physical memory size is smaller than virtual memory size.

*** ChampSim Multicore Out-of-Order Simulator ***
Warmup Instructions: 10000000
Simulation Instructions: 50000000
Number of CPUs: 1
Page size: 4096

Off-chip DRAM Size: 16 GiB Channels: 1 Width: 64-bit Data Rate: 3205 MT/s
Heartbeat CPU 0 instructions: 10000001 cycles: 3398637 heartbeat IPC: 2.942 cumulative IPC: 2.942 (Simulation time: 00 hr 00 min 26 sec)
Warmup finished CPU 0 instructions: 10000001 cycles: 3398637 cumulative IPC: 2.942 (Simulation time: 00 hr 00 min 26 sec)
Warmup complete CPU 0 instructions: 10000001 cycles: 3398637 cumulative IPC: 2.942 (Simulation time: 00 hr 00 min 26 sec)
Heartbeat CPU 0 instructions: 20000002 cycles: 12759638 heartbeat IPC: 1.068 cumulative IPC: 1.068 (Simulation time: 00 hr 01 min 08 sec)
Heartbeat CPU 0 instructions: 30000005 cycles: 22024726 heartbeat IPC: 1.079 cumulative IPC: 1.074 (Simulation time: 00 hr 01 min 51 sec)
Heartbeat CPU 0 instructions: 40000005 cycles: 31218467 heartbeat IPC: 1.088 cumulative IPC: 1.078 (Simulation time: 00 hr 02 min 32 sec)
Heartbeat CPU 0 instructions: 50000009 cycles: 40348262 heartbeat IPC: 1.095 cumulative IPC: 1.083 (Simulation time: 00 hr 03 min 14 sec)
Simulation finished CPU 0 instructions: 50000003 cycles: 46294741 cumulative IPC: 1.08 (Simulation time: 00 hr 03 min 56 sec)
Simulation complete CPU 0 instructions: 50000003 cycles: 46294741 cumulative IPC: 1.08 (Simulation time: 00 hr 03 min 56 sec)

ChampSim completed all CPUs

=== Simulation ===
CPU 0 runs traces/631.deepsjeng_s-928B.champsimtrace.xz

Region of Interest Statistics

CPU 0 cumulative IPC: 1.08 instructions: 50000003 cycles: 46294741
CPU 0 Branch Prediction Accuracy: 89.86% MPKI: 15.07 Average ROB Occupancy at Mispredict: 29.12
Branch type MPKI
BRANCH_DIRECT_JUMP: 0.01754
BRANCH_INDIRECT: 0.01102
BRANCH_CONDITIONAL: 14.54
BRANCH_DIRECT_CALL: 0.01738
BRANCH_INDIRECT_CALL: 0
BRANCH_RETURN: 0.4758

cpu0->cpu0_STLB TOTAL        ACCESS:      13767 HIT:       4627 MISS:       9140 MSHR_MERGE:          0
cpu0->cpu0_STLB LOAD         ACCESS:      13767 HIT:       4627 MISS:       9140 MSHR_MERGE:          0
cpu0->cpu0_STLB RFO          ACCESS:          0 HIT:          0 MISS:          0 MSHR_MERGE:          0
cpu0->cpu0_STLB PREFETCH     ACCESS:          0 HIT:          0 MISS:          0 MSHR_MERGE:          0
cpu0->cpu0_STLB WRITE        ACCESS:          0 HIT:          0 MISS:          0 MSHR_MERGE:          0
cpu0->cpu0_STLB TRANSLATION  ACCESS:          0 HIT:          0 MISS:          0 MSHR_MERGE:          0
cpu0->cpu0_STLB PREFETCH REQUESTED:          0 ISSUED:          0 USEFUL:          0 USELESS:          0
cpu0->cpu0_STLB AVERAGE MISS LATENCY: 846.6 cycles
cpu0->cpu0_L2C TOTAL        ACCESS:     144069 HIT:     102199 MISS:      41870 MSHR_MERGE:          0
cpu0->cpu0_L2C LOAD         ACCESS:      75352 HIT:      60335 MISS:      15017 MSHR_MERGE:          0
cpu0->cpu0_L2C RFO          ACCESS:      14742 HIT:      14086 MISS:        656 MSHR_MERGE:          0
cpu0->cpu0_L2C PREFETCH     ACCESS:          0 HIT:          0 MISS:          0 MSHR_MERGE:          0
cpu0->cpu0_L2C WRITE        ACCESS:      27159 HIT:      24248 MISS:       2911 MSHR_MERGE:          0
cpu0->cpu0_L2C TRANSLATION  ACCESS:      26816 HIT:       3530 MISS:      23286 MSHR_MERGE:          0
cpu0->cpu0_L2C PREFETCH REQUESTED:          0 ISSUED:          0 USEFUL:          0 USELESS:          0
cpu0->cpu0_L2C AVERAGE MISS LATENCY: 144.2 cycles
cpu0->cpu0_L1I TOTAL        ACCESS:    5825001 HIT:    5765997 MISS:      59004 MSHR_MERGE:      14045
cpu0->cpu0_L1I LOAD         ACCESS:    5825001 HIT:    5765997 MISS:      59004 MSHR_MERGE:      14045
cpu0->cpu0_L1I RFO          ACCESS:          0 HIT:          0 MISS:          0 MSHR_MERGE:          0
cpu0->cpu0_L1I PREFETCH     ACCESS:          0 HIT:          0 MISS:          0 MSHR_MERGE:          0
cpu0->cpu0_L1I WRITE        ACCESS:          0 HIT:          0 MISS:          0 MSHR_MERGE:          0
cpu0->cpu0_L1I TRANSLATION  ACCESS:          0 HIT:          0 MISS:          0 MSHR_MERGE:          0
cpu0->cpu0_L1I PREFETCH REQUESTED:          0 ISSUED:          0 USEFUL:          0 USELESS:          0
cpu0->cpu0_L1I AVERAGE MISS LATENCY: 7.067 cycles
cpu0->cpu0_L1D TOTAL        ACCESS:   15198795 HIT:   15092533 MISS:     106262 MSHR_MERGE:      34307
cpu0->cpu0_L1D LOAD         ACCESS:    9205510 HIT:    9164703 MISS:      40807 MSHR_MERGE:      10410
cpu0->cpu0_L1D RFO          ACCESS:          0 HIT:          0 MISS:          0 MSHR_MERGE:          0
cpu0->cpu0_L1D PREFETCH     ACCESS:          0 HIT:          0 MISS:          0 MSHR_MERGE:          0
cpu0->cpu0_L1D WRITE        ACCESS:    5965730 HIT:    5927148 MISS:      38582 MSHR_MERGE:      23840
cpu0->cpu0_L1D TRANSLATION  ACCESS:      27555 HIT:        682 MISS:      26873 MSHR_MERGE:         57
cpu0->cpu0_L1D PREFETCH REQUESTED:          0 ISSUED:          0 USEFUL:          0 USELESS:          0
cpu0->cpu0_L1D AVERAGE MISS LATENCY: 92.29 cycles
cpu0->cpu0_ITLB TOTAL        ACCESS:    4950040 HIT:    4950040 MISS:          0 MSHR_MERGE:          0
cpu0->cpu0_ITLB LOAD         ACCESS:    4950040 HIT:    4950040 MISS:          0 MSHR_MERGE:          0
cpu0->cpu0_ITLB RFO          ACCESS:          0 HIT:          0 MISS:          0 MSHR_MERGE:          0
cpu0->cpu0_ITLB PREFETCH     ACCESS:          0 HIT:          0 MISS:          0 MSHR_MERGE:          0
cpu0->cpu0_ITLB WRITE        ACCESS:          0 HIT:          0 MISS:          0 MSHR_MERGE:          0
cpu0->cpu0_ITLB TRANSLATION  ACCESS:          0 HIT:          0 MISS:          0 MSHR_MERGE:          0
cpu0->cpu0_ITLB PREFETCH REQUESTED:          0 ISSUED:          0 USEFUL:          0 USELESS:          0
cpu0->cpu0_ITLB AVERAGE MISS LATENCY: - cycles
cpu0->cpu0_DTLB TOTAL        ACCESS:   14277838 HIT:   14251196 MISS:      26642 MSHR_MERGE:      12875
cpu0->cpu0_DTLB LOAD         ACCESS:   14277838 HIT:   14251196 MISS:      26642 MSHR_MERGE:      12875
cpu0->cpu0_DTLB RFO          ACCESS:          0 HIT:          0 MISS:          0 MSHR_MERGE:          0
cpu0->cpu0_DTLB PREFETCH     ACCESS:          0 HIT:          0 MISS:          0 MSHR_MERGE:          0
cpu0->cpu0_DTLB WRITE        ACCESS:          0 HIT:          0 MISS:          0 MSHR_MERGE:          0
cpu0->cpu0_DTLB TRANSLATION  ACCESS:          0 HIT:          0 MISS:          0 MSHR_MERGE:          0
cpu0->cpu0_DTLB PREFETCH REQUESTED:          0 ISSUED:          0 USEFUL:          0 USELESS:          0
cpu0->cpu0_DTLB AVERAGE MISS LATENCY: 567.7 cycles
cpu0->LLC TOTAL        ACCESS:      49055 HIT:      15369 MISS:      33686 MSHR_MERGE:          0
cpu0->LLC LOAD         ACCESS:      15017 HIT:        801 MISS:      14216 MSHR_MERGE:          0
cpu0->LLC RFO          ACCESS:        656 HIT:        315 MISS:        341 MSHR_MERGE:          0
cpu0->LLC PREFETCH     ACCESS:          0 HIT:          0 MISS:          0 MSHR_MERGE:          0
cpu0->LLC WRITE        ACCESS:      10096 HIT:      10061 MISS:         35 MSHR_MERGE:          0
cpu0->LLC TRANSLATION  ACCESS:      23286 HIT:       4192 MISS:      19094 MSHR_MERGE:          0
cpu0->LLC PREFETCH REQUESTED:          0 ISSUED:          0 USEFUL:          0 USELESS:          0
cpu0->LLC AVERAGE MISS LATENCY: 160.5 cycles

DRAM Statistics

Channel 0 RQ ROW_BUFFER_HIT:         14
  ROW_BUFFER_MISS:      33637
  AVG DBUS CONGESTED CYCLE: 4.513
Channel 0 WQ ROW_BUFFER_HIT:         16
  ROW_BUFFER_MISS:       1698
  FULL:          0
Channel 0 REFRESHES ISSUED:       3858
