[VMEM] WARNING: physical memory size is smaller than virtual memory size.

*** ChampSim Multicore Out-of-Order Simulator ***
Warmup Instructions: 10000000
Simulation Instructions: 50000000
Number of CPUs: 1
Page size: 4096

Off-chip DRAM Size: 16 GiB Channels: 1 Width: 64-bit Data Rate: 3205 MT/s
Heartbeat CPU 0 instructions: 10000002 cycles: 2805798 heartbeat IPC: 3.564 cumulative IPC: 3.564 (Simulation time: 00 hr 00 min 24 sec)
Warmup finished CPU 0 instructions: 10000002 cycles: 2805798 cumulative IPC: 3.564 (Simulation time: 00 hr 00 min 24 sec)
Warmup complete CPU 0 instructions: 10000002 cycles: 2805798 cumulative IPC: 3.564 (Simulation time: 00 hr 00 min 24 sec)
Heartbeat CPU 0 instructions: 20000004 cycles: 14281224 heartbeat IPC: 0.8714 cumulative IPC: 0.8714 (Simulation time: 00 hr 01 min 22 sec)
Heartbeat CPU 0 instructions: 30000005 cycles: 25840471 heartbeat IPC: 0.8651 cumulative IPC: 0.8683 (Simulation time: 00 hr 02 min 20 sec)
Heartbeat CPU 0 instructions: 40000008 cycles: 37348366 heartbeat IPC: 0.869 cumulative IPC: 0.8685 (Simulation time: 00 hr 03 min 18 sec)
Heartbeat CPU 0 instructions: 50000009 cycles: 48835310 heartbeat IPC: 0.8706 cumulative IPC: 0.869 (Simulation time: 00 hr 04 min 16 sec)
Simulation finished CPU 0 instructions: 50000003 cycles: 57557082 cumulative IPC: 0.8687 (Simulation time: 00 hr 05 min 14 sec)
Simulation complete CPU 0 instructions: 50000003 cycles: 57557082 cumulative IPC: 0.8687 (Simulation time: 00 hr 05 min 14 sec)

ChampSim completed all CPUs

=== Simulation ===
CPU 0 runs traces/603.bwaves_s-2931B.champsimtrace.xz

Region of Interest Statistics

CPU 0 cumulative IPC: 0.8687 instructions: 50000003 cycles: 57557082
CPU 0 Branch Prediction Accuracy: 80.62% MPKI: 1.636 Average ROB Occupancy at Mispredict: 296.8
Branch type MPKI
BRANCH_DIRECT_JUMP: 0
BRANCH_INDIRECT: 0
BRANCH_CONDITIONAL: 1.636
BRANCH_DIRECT_CALL: 0
BRANCH_INDIRECT_CALL: 0
BRANCH_RETURN: 0

cpu0->cpu0_STLB TOTAL        ACCESS:      86045 HIT:      75401 MISS:      10644 MSHR_MERGE:          0
cpu0->cpu0_STLB LOAD         ACCESS:      86045 HIT:      75401 MISS:      10644 MSHR_MERGE:          0
cpu0->cpu0_STLB RFO          ACCESS:          0 HIT:          0 MISS:          0 MSHR_MERGE:          0
cpu0->cpu0_STLB PREFETCH     ACCESS:          0 HIT:          0 MISS:          0 MSHR_MERGE:          0
cpu0->cpu0_STLB WRITE        ACCESS:          0 HIT:          0 MISS:          0 MSHR_MERGE:          0
cpu0->cpu0_STLB TRANSLATION  ACCESS:          0 HIT:          0 MISS:          0 MSHR_MERGE:          0
cpu0->cpu0_STLB PREFETCH REQUESTED:          0 ISSUED:          0 USEFUL:          0 USELESS:          0
cpu0->cpu0_STLB AVERAGE MISS LATENCY: 706.9 cycles
cpu0->cpu0_L2C TOTAL        ACCESS:    1173925 HIT:     231177 MISS:     942748 MSHR_MERGE:          0
cpu0->cpu0_L2C LOAD         ACCESS:     518089 HIT:      25679 MISS:     492410 MSHR_MERGE:          0
cpu0->cpu0_L2C RFO          ACCESS:     315355 HIT:      17606 MISS:     297749 MSHR_MERGE:          0
cpu0->cpu0_L2C PREFETCH     ACCESS:          0 HIT:          0 MISS:          0 MSHR_MERGE:          0
cpu0->cpu0_L2C WRITE        ACCESS:     319240 HIT:     185442 MISS:     133798 MSHR_MERGE:          0
cpu0->cpu0_L2C TRANSLATION  ACCESS:      21241 HIT:       2450 MISS:      18791 MSHR_MERGE:          0
cpu0->cpu0_L2C PREFETCH REQUESTED:          0 ISSUED:          0 USEFUL:          0 USELESS:          0
cpu0->cpu0_L2C AVERAGE MISS LATENCY: 178.5 cycles
cpu0->cpu0_L1I TOTAL        ACCESS:    5680983 HIT:    5680975 MISS:          8 MSHR_MERGE:          1
cpu0->cpu0_L1I LOAD         ACCESS:    5680983 HIT:    5680975 MISS:          8 MSHR_MERGE:          1
cpu0->cpu0_L1I RFO          ACCESS:          0 HIT:          0 MISS:          0 MSHR_MERGE:          0
cpu0->cpu0_L1I PREFETCH     ACCESS:          0 HIT:          0 MISS:          0 MSHR_MERGE:          0
cpu0->cpu0_L1I WRITE        ACCESS:          0 HIT:          0 MISS:          0 MSHR_MERGE:          0
cpu0->cpu0_L1I TRANSLATION  ACCESS:          0 HIT:          0 MISS:          0 MSHR_MERGE:          0
cpu0->cpu0_L1I PREFETCH REQUESTED:          0 ISSUED:          0 USEFUL:          0 USELESS:          0
cpu0->cpu0_L1I AVERAGE MISS LATENCY: 213.4 cycles
cpu0->cpu0_L1D TOTAL        ACCESS:   17012452 HIT:   15405888 MISS:    1606564 MSHR_MERGE:     751543
cpu0->cpu0_L1D LOAD         ACCESS:    7844795 HIT:    7320094 MISS:     524701 MSHR_MERGE:       6611
cpu0->cpu0_L1D RFO          ACCESS:          0 HIT:          0 MISS:          0 MSHR_MERGE:          0
cpu0->cpu0_L1D PREFETCH     ACCESS:          0 HIT:          0 MISS:          0 MSHR_MERGE:          0
cpu0->cpu0_L1D WRITE        ACCESS:    9146342 HIT:    8085723 MISS:    1060619 MSHR_MERGE:     744929
cpu0->cpu0_L1D TRANSLATION  ACCESS:      21315 HIT:         71 MISS:      21244 MSHR_MERGE:          3
cpu0->cpu0_L1D PREFETCH REQUESTED:          0 ISSUED:          0 USEFUL:          0 USELESS:          0
cpu0->cpu0_L1D AVERAGE MISS LATENCY: 205.2 cycles
cpu0->cpu0_ITLB TOTAL        ACCESS:    4541897 HIT:    4541897 MISS:          0 MSHR_MERGE:          0
cpu0->cpu0_ITLB LOAD         ACCESS:    4541897 HIT:    4541897 MISS:          0 MSHR_MERGE:          0
cpu0->cpu0_ITLB RFO          ACCESS:          0 HIT:          0 MISS:          0 MSHR_MERGE:          0
cpu0->cpu0_ITLB PREFETCH     ACCESS:          0 HIT:          0 MISS:          0 MSHR_MERGE:          0
cpu0->cpu0_ITLB WRITE        ACCESS:          0 HIT:          0 MISS:          0 MSHR_MERGE:          0
cpu0->cpu0_ITLB TRANSLATION  ACCESS:          0 HIT:          0 MISS:          0 MSHR_MERGE:          0
cpu0->cpu0_ITLB PREFETCH REQUESTED:          0 ISSUED:          0 USEFUL:          0 USELESS:          0
cpu0->cpu0_ITLB AVERAGE MISS LATENCY: - cycles
cpu0->cpu0_DTLB TOTAL        ACCESS:   15714653 HIT:   15618289 MISS:      96364 MSHR_MERGE:      10319
cpu0->cpu0_DTLB LOAD         ACCESS:   15714653 HIT:   15618289 MISS:      96364 MSHR_MERGE:      10319
cpu0->cpu0_DTLB RFO          ACCESS:          0 HIT:          0 MISS:          0 MSHR_MERGE:          0
cpu0->cpu0_DTLB PREFETCH     ACCESS:          0 HIT:          0 MISS:          0 MSHR_MERGE:          0
cpu0->cpu0_DTLB WRITE        ACCESS:          0 HIT:          0 MISS:          0 MSHR_MERGE:          0
cpu0->cpu0_DTLB TRANSLATION  ACCESS:          0 HIT:          0 MISS:          0 MSHR_MERGE:          0
cpu0->cpu0_DTLB PREFETCH REQUESTED:          0 ISSUED:          0 USEFUL:          0 USELESS:          0
cpu0->cpu0_DTLB AVERAGE MISS LATENCY: 92.58 cycles
cpu0->LLC TOTAL        ACCESS:    1107142 HIT:     404234 MISS:     702908 MSHR_MERGE:          0
cpu0->LLC LOAD         ACCESS:     492410 HIT:     108559 MISS:     383851 MSHR_MERGE:          0
cpu0->LLC RFO          ACCESS:     297749 HIT:         53 MISS:     297696 MSHR_MERGE:          0
cpu0->LLC PREFETCH     ACCESS:          0 HIT:          0 MISS:          0 MSHR_MERGE:          0
cpu0->LLC WRITE        ACCESS:     298192 HIT:     289100 MISS:       9092 MSHR_MERGE:          0
cpu0->LLC TRANSLATION  ACCESS:      18791 HIT:       6522 MISS:      12269 MSHR_MERGE:          0
cpu0->LLC PREFETCH REQUESTED:          0 ISSUED:          0 USEFUL:          0 USELESS:          0
cpu0->LLC AVERAGE MISS LATENCY: 220.5 cycles

DRAM Statistics

Channel 0 RQ ROW_BUFFER_HIT:          1
  ROW_BUFFER_MISS:     693815
  AVG DBUS CONGESTED CYCLE: 11.93
Channel 0 WQ ROW_BUFFER_HIT:     109759
  ROW_BUFFER_MISS:     188464
  FULL:          0
Channel 0 REFRESHES ISSUED:       4797
