[VMEM] WARNING: physical memory size is smaller than virtual memory size.

*** ChampSim Multicore Out-of-Order Simulator ***
Warmup Instructions: 10000000
Simulation Instructions: 50000000
Number of CPUs: 1
Page size: 4096

Off-chip DRAM Size: 16 GiB Channels: 1 Width: 64-bit Data Rate: 3205 MT/s
Heartbeat CPU 0 instructions: 10000003 cycles: 2862745 heartbeat IPC: 3.493 cumulative IPC: 3.493 (Simulation time: 00 hr 00 min 20 sec)
Warmup finished CPU 0 instructions: 10000003 cycles: 2862745 cumulative IPC: 3.493 (Simulation time: 00 hr 00 min 20 sec)
Warmup complete CPU 0 instructions: 10000003 cycles: 2862745 cumulative IPC: 3.493 (Simulation time: 00 hr 00 min 20 sec)
Heartbeat CPU 0 instructions: 20000005 cycles: 10689118 heartbeat IPC: 1.278 cumulative IPC: 1.278 (Simulation time: 00 hr 00 min 58 sec)
Heartbeat CPU 0 instructions: 30000007 cycles: 21520706 heartbeat IPC: 0.9232 cumulative IPC: 1.072 (Simulation time: 00 hr 01 min 47 sec)
Heartbeat CPU 0 instructions: 40000009 cycles: 30483685 heartbeat IPC: 1.116 cumulative IPC: 1.086 (Simulation time: 00 hr 02 min 28 sec)
Heartbeat CPU 0 instructions: 50000011 cycles: 40295064 heartbeat IPC: 1.019 cumulative IPC: 1.069 (Simulation time: 00 hr 03 min 14 sec)
Simulation finished CPU 0 instructions: 50000000 cycles: 47798646 cumulative IPC: 1.046 (Simulation time: 00 hr 04 min 01 sec)
Simulation complete CPU 0 instructions: 50000000 cycles: 47798646 cumulative IPC: 1.046 (Simulation time: 00 hr 04 min 01 sec)

ChampSim completed all CPUs

=== Simulation ===
CPU 0 runs traces/627.cam4_s-490B.champsimtrace.xz

Region of Interest Statistics

CPU 0 cumulative IPC: 1.046 instructions: 50000000 cycles: 47798646
CPU 0 Branch Prediction Accuracy: 90.31% MPKI: 9.36 Average ROB Occupancy at Mispredict: 34.93
Branch type MPKI
BRANCH_DIRECT_JUMP: 0.00628
BRANCH_INDIRECT: 0
BRANCH_CONDITIONAL: 9.353
BRANCH_DIRECT_CALL: 0.0001
BRANCH_INDIRECT_CALL: 0
BRANCH_RETURN: 0.00014

cpu0->cpu0_STLB TOTAL        ACCESS:      15736 HIT:      14879 MISS:        857 MSHR_MERGE:          0
cpu0->cpu0_STLB LOAD         ACCESS:      15736 HIT:      14879 MISS:        857 MSHR_MERGE:          0
cpu0->cpu0_STLB RFO          ACCESS:          0 HIT:          0 MISS:          0 MSHR_MERGE:          0
cpu0->cpu0_STLB PREFETCH     ACCESS:          0 HIT:          0 MISS:          0 MSHR_MERGE:          0
cpu0->cpu0_STLB WRITE        ACCESS:          0 HIT:          0 MISS:          0 MSHR_MERGE:          0
cpu0->cpu0_STLB TRANSLATION  ACCESS:          0 HIT:          0 MISS:          0 MSHR_MERGE:          0
cpu0->cpu0_STLB PREFETCH REQUESTED:          0 ISSUED:          0 USEFUL:          0 USELESS:          0
cpu0->cpu0_STLB AVERAGE MISS LATENCY: 695.3 cycles
cpu0->cpu0_L2C TOTAL        ACCESS:    1299488 HIT:     403016 MISS:     896472 MSHR_MERGE:          0
cpu0->cpu0_L2C LOAD         ACCESS:     630685 HIT:     147158 MISS:     483527 MSHR_MERGE:          0
cpu0->cpu0_L2C RFO          ACCESS:     279567 HIT:      55008 MISS:     224559 MSHR_MERGE:          0
cpu0->cpu0_L2C PREFETCH     ACCESS:          0 HIT:          0 MISS:          0 MSHR_MERGE:          0
cpu0->cpu0_L2C WRITE        ACCESS:     388166 HIT:     200850 MISS:     187316 MSHR_MERGE:          0
cpu0->cpu0_L2C TRANSLATION  ACCESS:       1070 HIT:          0 MISS:       1070 MSHR_MERGE:          0
cpu0->cpu0_L2C PREFETCH REQUESTED:          0 ISSUED:          0 USEFUL:          0 USELESS:          0
cpu0->cpu0_L2C AVERAGE MISS LATENCY: 69.1 cycles
cpu0->cpu0_L1I TOTAL        ACCESS:    3485482 HIT:    3482927 MISS:       2555 MSHR_MERGE:       1347
cpu0->cpu0_L1I LOAD         ACCESS:    3485482 HIT:    3482927 MISS:       2555 MSHR_MERGE:       1347
cpu0->cpu0_L1I RFO          ACCESS:          0 HIT:          0 MISS:          0 MSHR_MERGE:          0
cpu0->cpu0_L1I PREFETCH     ACCESS:          0 HIT:          0 MISS:          0 MSHR_MERGE:          0
cpu0->cpu0_L1I WRITE        ACCESS:          0 HIT:          0 MISS:          0 MSHR_MERGE:          0
cpu0->cpu0_L1I TRANSLATION  ACCESS:          0 HIT:          0 MISS:          0 MSHR_MERGE:          0
cpu0->cpu0_L1I PREFETCH REQUESTED:          0 ISSUED:          0 USEFUL:          0 USELESS:          0
cpu0->cpu0_L1I AVERAGE MISS LATENCY: 261.3 cycles
cpu0->cpu0_L1D TOTAL        ACCESS:    9959098 HIT:    7391022 MISS:    2568076 MSHR_MERGE:    1657962
cpu0->cpu0_L1D LOAD         ACCESS:    6647767 HIT:    5257595 MISS:    1390172 MSHR_MERGE:     760695
cpu0->cpu0_L1D RFO          ACCESS:          0 HIT:          0 MISS:          0 MSHR_MERGE:          0
cpu0->cpu0_L1D PREFETCH     ACCESS:          0 HIT:          0 MISS:          0 MSHR_MERGE:          0
cpu0->cpu0_L1D WRITE        ACCESS:    3309612 HIT:    2132779 MISS:    1176833 MSHR_MERGE:     897266
cpu0->cpu0_L1D TRANSLATION  ACCESS:       1719 HIT:        648 MISS:       1071 MSHR_MERGE:          1
cpu0->cpu0_L1D PREFETCH REQUESTED:          0 ISSUED:          0 USEFUL:          0 USELESS:          0
cpu0->cpu0_L1D AVERAGE MISS LATENCY: 75.73 cycles
cpu0->cpu0_ITLB TOTAL        ACCESS:    3144462 HIT:    3144440 MISS:         22 MSHR_MERGE:         16
cpu0->cpu0_ITLB LOAD         ACCESS:    3144462 HIT:    3144440 MISS:         22 MSHR_MERGE:         16
cpu0->cpu0_ITLB RFO          ACCESS:          0 HIT:          0 MISS:          0 MSHR_MERGE:          0
cpu0->cpu0_ITLB PREFETCH     ACCESS:          0 HIT:          0 MISS:          0 MSHR_MERGE:          0
cpu0->cpu0_ITLB WRITE        ACCESS:          0 HIT:          0 MISS:          0 MSHR_MERGE:          0
cpu0->cpu0_ITLB TRANSLATION  ACCESS:          0 HIT:          0 MISS:          0 MSHR_MERGE:          0
cpu0->cpu0_ITLB PREFETCH REQUESTED:          0 ISSUED:          0 USEFUL:          0 USELESS:          0
cpu0->cpu0_ITLB AVERAGE MISS LATENCY: 831.2 cycles
cpu0->cpu0_DTLB TOTAL        ACCESS:    9648838 HIT:    9621488 MISS:      27350 MSHR_MERGE:      11620
cpu0->cpu0_DTLB LOAD         ACCESS:    9648838 HIT:    9621488 MISS:      27350 MSHR_MERGE:      11620
cpu0->cpu0_DTLB RFO          ACCESS:          0 HIT:          0 MISS:          0 MSHR_MERGE:          0
cpu0->cpu0_DTLB PREFETCH     ACCESS:          0 HIT:          0 MISS:          0 MSHR_MERGE:          0
cpu0->cpu0_DTLB WRITE        ACCESS:          0 HIT:          0 MISS:          0 MSHR_MERGE:          0
cpu0->cpu0_DTLB TRANSLATION  ACCESS:          0 HIT:          0 MISS:          0 MSHR_MERGE:          0
cpu0->cpu0_DTLB PREFETCH REQUESTED:          0 ISSUED:          0 USEFUL:          0 USELESS:          0
cpu0->cpu0_DTLB AVERAGE MISS LATENCY: 42.62 cycles
cpu0->LLC TOTAL        ACCESS:    1025120 HIT:     809714 MISS:     215406 MSHR_MERGE:          0
cpu0->LLC LOAD         ACCESS:     483526 HIT:     391139 MISS:      92387 MSHR_MERGE:          0
cpu0->LLC RFO          ACCESS:     224559 HIT:     121439 MISS:     103120 MSHR_MERGE:          0
cpu0->LLC PREFETCH     ACCESS:          0 HIT:          0 MISS:          0 MSHR_MERGE:          0
cpu0->LLC WRITE        ACCESS:     315965 HIT:     297124 MISS:      18841 MSHR_MERGE:          0
cpu0->LLC TRANSLATION  ACCESS:       1070 HIT:         12 MISS:       1058 MSHR_MERGE:          0
cpu0->LLC PREFETCH REQUESTED:          0 ISSUED:          0 USEFUL:          0 USELESS:          0
cpu0->LLC AVERAGE MISS LATENCY: 234.5 cycles

DRAM Statistics

Channel 0 RQ ROW_BUFFER_HIT:      10024
  ROW_BUFFER_MISS:     186279
  AVG DBUS CONGESTED CYCLE: 11.37
Channel 0 WQ ROW_BUFFER_HIT:      34448
  ROW_BUFFER_MISS:     127638
  FULL:          0
Channel 0 REFRESHES ISSUED:       3983
