[VMEM] WARNING: physical memory size is smaller than virtual memory size.

*** ChampSim Multicore Out-of-Order Simulator ***
Warmup Instructions: 10000000
Simulation Instructions: 50000000
Number of CPUs: 1
Page size: 4096

Off-chip DRAM Size: 16 GiB Channels: 1 Width: 64-bit Data Rate: 3205 MT/s
Heartbeat CPU 0 instructions: 10000002 cycles: 2542456 heartbeat IPC: 3.933 cumulative IPC: 3.933 (Simulation time: 00 hr 00 min 19 sec)
Warmup finished CPU 0 instructions: 10000002 cycles: 2542456 cumulative IPC: 3.933 (Simulation time: 00 hr 00 min 19 sec)
Warmup complete CPU 0 instructions: 10000002 cycles: 2542456 cumulative IPC: 3.933 (Simulation time: 00 hr 00 min 19 sec)
Heartbeat CPU 0 instructions: 20000002 cycles: 6732698 heartbeat IPC: 2.386 cumulative IPC: 2.386 (Simulation time: 00 hr 00 min 44 sec)
Heartbeat CPU 0 instructions: 30000003 cycles: 10927936 heartbeat IPC: 2.384 cumulative IPC: 2.385 (Simulation time: 00 hr 01 min 08 sec)
Heartbeat CPU 0 instructions: 40000003 cycles: 15126768 heartbeat IPC: 2.382 cumulative IPC: 2.384 (Simulation time: 00 hr 01 min 33 sec)
Heartbeat CPU 0 instructions: 50000004 cycles: 19316035 heartbeat IPC: 2.387 cumulative IPC: 2.385 (Simulation time: 00 hr 01 min 58 sec)
Simulation finished CPU 0 instructions: 50000001 cycles: 20959676 cumulative IPC: 2.386 (Simulation time: 00 hr 02 min 22 sec)
Simulation complete CPU 0 instructions: 50000001 cycles: 20959676 cumulative IPC: 2.386 (Simulation time: 00 hr 02 min 22 sec)

ChampSim completed all CPUs

=== Simulation ===
CPU 0 runs traces/625.x264_s-12B.champsimtrace.xz

Region of Interest Statistics

CPU 0 cumulative IPC: 2.386 instructions: 50000001 cycles: 20959676
CPU 0 Branch Prediction Accuracy: 88.67% MPKI: 4.877 Average ROB Occupancy at Mispredict: 79.71
Branch type MPKI
BRANCH_DIRECT_JUMP: 4e-05
BRANCH_INDIRECT: 2e-05
BRANCH_CONDITIONAL: 4.875
BRANCH_DIRECT_CALL: 0
BRANCH_INDIRECT_CALL: 0.00136
BRANCH_RETURN: 0

cpu0->cpu0_STLB TOTAL        ACCESS:       3219 HIT:       3063 MISS:        156 MSHR_MERGE:          0
cpu0->cpu0_STLB LOAD         ACCESS:       3219 HIT:       3063 MISS:        156 MSHR_MERGE:          0
cpu0->cpu0_STLB RFO          ACCESS:          0 HIT:          0 MISS:          0 MSHR_MERGE:          0
cpu0->cpu0_STLB PREFETCH     ACCESS:          0 HIT:          0 MISS:          0 MSHR_MERGE:          0
cpu0->cpu0_STLB WRITE        ACCESS:          0 HIT:          0 MISS:          0 MSHR_MERGE:          0
cpu0->cpu0_STLB TRANSLATION  ACCESS:          0 HIT:          0 MISS:          0 MSHR_MERGE:          0
cpu0->cpu0_STLB PREFETCH REQUESTED:          0 ISSUED:          0 USEFUL:          0 USELESS:          0
cpu0->cpu0_STLB AVERAGE MISS LATENCY: 742.8 cycles
cpu0->cpu0_L2C TOTAL        ACCESS:      17154 HIT:       6283 MISS:      10871 MSHR_MERGE:          0
cpu0->cpu0_L2C LOAD         ACCESS:      15927 HIT:       5946 MISS:       9981 MSHR_MERGE:          0
cpu0->cpu0_L2C RFO          ACCESS:        475 HIT:          8 MISS:        467 MSHR_MERGE:          0
cpu0->cpu0_L2C PREFETCH     ACCESS:          0 HIT:          0 MISS:          0 MSHR_MERGE:          0
cpu0->cpu0_L2C WRITE        ACCESS:        469 HIT:        327 MISS:        142 MSHR_MERGE:          0
cpu0->cpu0_L2C TRANSLATION  ACCESS:        283 HIT:          2 MISS:        281 MSHR_MERGE:          0
cpu0->cpu0_L2C PREFETCH REQUESTED:          0 ISSUED:          0 USEFUL:          0 USELESS:          0
cpu0->cpu0_L2C AVERAGE MISS LATENCY: 146.5 cycles
cpu0->cpu0_L1I TOTAL        ACCESS:    4314667 HIT:    4314664 MISS:          3 MSHR_MERGE:          1
cpu0->cpu0_L1I LOAD         ACCESS:    4314667 HIT:    4314664 MISS:          3 MSHR_MERGE:          1
cpu0->cpu0_L1I RFO          ACCESS:          0 HIT:          0 MISS:          0 MSHR_MERGE:          0
cpu0->cpu0_L1I PREFETCH     ACCESS:          0 HIT:          0 MISS:          0 MSHR_MERGE:          0
cpu0->cpu0_L1I WRITE        ACCESS:          0 HIT:          0 MISS:          0 MSHR_MERGE:          0
cpu0->cpu0_L1I TRANSLATION  ACCESS:          0 HIT:          0 MISS:          0 MSHR_MERGE:          0
cpu0->cpu0_L1I PREFETCH REQUESTED:          0 ISSUED:          0 USEFUL:          0 USELESS:          0
cpu0->cpu0_L1I AVERAGE MISS LATENCY: 165 cycles
cpu0->cpu0_L1D TOTAL        ACCESS:   10290667 HIT:   10250731 MISS:      39936 MSHR_MERGE:      23253
cpu0->cpu0_L1D LOAD         ACCESS:    7269132 HIT:    7229966 MISS:      39166 MSHR_MERGE:      23241
cpu0->cpu0_L1D RFO          ACCESS:          0 HIT:          0 MISS:          0 MSHR_MERGE:          0
cpu0->cpu0_L1D PREFETCH     ACCESS:          0 HIT:          0 MISS:          0 MSHR_MERGE:          0
cpu0->cpu0_L1D WRITE        ACCESS:    3021223 HIT:    3020736 MISS:        487 MSHR_MERGE:         12
cpu0->cpu0_L1D TRANSLATION  ACCESS:        312 HIT:         29 MISS:        283 MSHR_MERGE:          0
cpu0->cpu0_L1D PREFETCH REQUESTED:          0 ISSUED:          0 USEFUL:          0 USELESS:          0
cpu0->cpu0_L1D AVERAGE MISS LATENCY: 104.1 cycles
cpu0->cpu0_ITLB TOTAL        ACCESS:    3953859 HIT:    3953859 MISS:          0 MSHR_MERGE:          0
cpu0->cpu0_ITLB LOAD         ACCESS:    3953859 HIT:    3953859 MISS:          0 MSHR_MERGE:          0
cpu0->cpu0_ITLB RFO          ACCESS:          0 HIT:          0 MISS:          0 MSHR_MERGE:          0
cpu0->cpu0_ITLB PREFETCH     ACCESS:          0 HIT:          0 MISS:          0 MSHR_MERGE:          0
cpu0->cpu0_ITLB WRITE        ACCESS:          0 HIT:          0 MISS:          0 MSHR_MERGE:          0
cpu0->cpu0_ITLB TRANSLATION  ACCESS:          0 HIT:          0 MISS:          0 MSHR_MERGE:          0
cpu0->cpu0_ITLB PREFETCH REQUESTED:          0 ISSUED:          0 USEFUL:          0 USELESS:          0
cpu0->cpu0_ITLB AVERAGE MISS LATENCY: - cycles
cpu0->cpu0_DTLB TOTAL        ACCESS:    9826250 HIT:    9820689 MISS:       5561 MSHR_MERGE:       2342
cpu0->cpu0_DTLB LOAD         ACCESS:    9826250 HIT:    9820689 MISS:       5561 MSHR_MERGE:       2342
cpu0->cpu0_DTLB RFO          ACCESS:          0 HIT:          0 MISS:          0 MSHR_MERGE:          0
cpu0->cpu0_DTLB PREFETCH     ACCESS:          0 HIT:          0 MISS:          0 MSHR_MERGE:          0
cpu0->cpu0_DTLB WRITE        ACCESS:          0 HIT:          0 MISS:          0 MSHR_MERGE:          0
cpu0->cpu0_DTLB TRANSLATION  ACCESS:          0 HIT:          0 MISS:          0 MSHR_MERGE:          0
cpu0->cpu0_DTLB PREFETCH REQUESTED:          0 ISSUED:          0 USEFUL:          0 USELESS:          0
cpu0->cpu0_DTLB AVERAGE MISS LATENCY: 41.05 cycles
cpu0->LLC TOTAL        ACCESS:      11088 HIT:       2033 MISS:       9055 MSHR_MERGE:          0
cpu0->LLC LOAD         ACCESS:       9981 HIT:       1671 MISS:       8310 MSHR_MERGE:          0
cpu0->LLC RFO          ACCESS:        467 HIT:          0 MISS:        467 MSHR_MERGE:          0
cpu0->LLC PREFETCH     ACCESS:          0 HIT:          0 MISS:          0 MSHR_MERGE:          0
cpu0->LLC WRITE        ACCESS:        359 HIT:        359 MISS:          0 MSHR_MERGE:          0
cpu0->LLC TRANSLATION  ACCESS:        281 HIT:          3 MISS:        278 MSHR_MERGE:          0
cpu0->LLC PREFETCH REQUESTED:          0 ISSUED:          0 USEFUL:          0 USELESS:          0
cpu0->LLC AVERAGE MISS LATENCY: 157 cycles

DRAM Statistics

Channel 0 RQ ROW_BUFFER_HIT:         73
  ROW_BUFFER_MISS:       8982
  AVG DBUS CONGESTED CYCLE: 2.891
Channel 0 WQ ROW_BUFFER_HIT:          0
  ROW_BUFFER_MISS:          0
  FULL:          0
Channel 0 REFRESHES ISSUED:       1747
