[VMEM] WARNING: physical memory size is smaller than virtual memory size.

*** ChampSim Multicore Out-of-Order Simulator ***
Warmup Instructions: 10000000
Simulation Instructions: 50000000
Number of CPUs: 1
Page size: 4096

Off-chip DRAM Size: 16 GiB Channels: 1 Width: 64-bit Data Rate: 3205 MT/s
Heartbeat CPU 0 instructions: 10000000 cycles: 2862821 heartbeat IPC: 3.493 cumulative IPC: 3.493 (Simulation time: 00 hr 00 min 20 sec)
Warmup finished CPU 0 instructions: 10000000 cycles: 2862821 cumulative IPC: 3.493 (Simulation time: 00 hr 00 min 20 sec)
Warmup complete CPU 0 instructions: 10000000 cycles: 2862821 cumulative IPC: 3.493 (Simulation time: 00 hr 00 min 20 sec)
Heartbeat CPU 0 instructions: 20000000 cycles: 10786493 heartbeat IPC: 1.262 cumulative IPC: 1.262 (Simulation time: 00 hr 00 min 58 sec)
Heartbeat CPU 0 instructions: 30000002 cycles: 21918192 heartbeat IPC: 0.8983 cumulative IPC: 1.05 (Simulation time: 00 hr 01 min 48 sec)
Heartbeat CPU 0 instructions: 40000004 cycles: 31040485 heartbeat IPC: 1.096 cumulative IPC: 1.065 (Simulation time: 00 hr 02 min 30 sec)
Heartbeat CPU 0 instructions: 50000006 cycles: 41216778 heartbeat IPC: 0.9827 cumulative IPC: 1.043 (Simulation time: 00 hr 03 min 17 sec)
Simulation finished CPU 0 instructions: 50000003 cycles: 48928830 cumulative IPC: 1.022 (Simulation time: 00 hr 04 min 05 sec)
Simulation complete CPU 0 instructions: 50000003 cycles: 48928830 cumulative IPC: 1.022 (Simulation time: 00 hr 04 min 05 sec)

ChampSim completed all CPUs

=== Simulation ===
CPU 0 runs traces/627.cam4_s-490B.champsimtrace.xz

Region of Interest Statistics

CPU 0 cumulative IPC: 1.022 instructions: 50000003 cycles: 48928830
CPU 0 Branch Prediction Accuracy: 90.31% MPKI: 9.36 Average ROB Occupancy at Mispredict: 34.09
Branch type MPKI
BRANCH_DIRECT_JUMP: 0.00628
BRANCH_INDIRECT: 0
BRANCH_CONDITIONAL: 9.353
BRANCH_DIRECT_CALL: 0.0001
BRANCH_INDIRECT_CALL: 0
BRANCH_RETURN: 0.00014

cpu0->cpu0_STLB TOTAL        ACCESS:      15736 HIT:      14879 MISS:        857 MSHR_MERGE:          0
cpu0->cpu0_STLB LOAD         ACCESS:      15736 HIT:      14879 MISS:        857 MSHR_MERGE:          0
cpu0->cpu0_STLB RFO          ACCESS:          0 HIT:          0 MISS:          0 MSHR_MERGE:          0
cpu0->cpu0_STLB PREFETCH     ACCESS:          0 HIT:          0 MISS:          0 MSHR_MERGE:          0
cpu0->cpu0_STLB WRITE        ACCESS:          0 HIT:          0 MISS:          0 MSHR_MERGE:          0
cpu0->cpu0_STLB TRANSLATION  ACCESS:          0 HIT:          0 MISS:          0 MSHR_MERGE:          0
cpu0->cpu0_STLB PREFETCH REQUESTED:          0 ISSUED:          0 USEFUL:          0 USELESS:          0
cpu0->cpu0_STLB AVERAGE MISS LATENCY: 699.5 cycles
cpu0->cpu0_L2C TOTAL        ACCESS:    1299479 HIT:     690152 MISS:     609327 MSHR_MERGE:          0
cpu0->cpu0_L2C LOAD         ACCESS:     630686 HIT:     286532 MISS:     344154 MSHR_MERGE:          0
cpu0->cpu0_L2C RFO          ACCESS:     279564 HIT:      16059 MISS:     263505 MSHR_MERGE:          0
cpu0->cpu0_L2C PREFETCH     ACCESS:          0 HIT:          0 MISS:          0 MSHR_MERGE:          0
cpu0->cpu0_L2C WRITE        ACCESS:     388159 HIT:     387557 MISS:        602 MSHR_MERGE:          0
cpu0->cpu0_L2C TRANSLATION  ACCESS:       1070 HIT:          4 MISS:       1066 MSHR_MERGE:          0
cpu0->cpu0_L2C PREFETCH REQUESTED:          0 ISSUED:          0 USEFUL:          0 USELESS:          0
cpu0->cpu0_L2C AVERAGE MISS LATENCY: 120.4 cycles
cpu0->cpu0_L1I TOTAL        ACCESS:    3439285 HIT:    3436701 MISS:       2584 MSHR_MERGE:       1376
cpu0->cpu0_L1I LOAD         ACCESS:    3439285 HIT:    3436701 MISS:       2584 MSHR_MERGE:       1376
cpu0->cpu0_L1I RFO          ACCESS:          0 HIT:          0 MISS:          0 MSHR_MERGE:          0
cpu0->cpu0_L1I PREFETCH     ACCESS:          0 HIT:          0 MISS:          0 MSHR_MERGE:          0
cpu0->cpu0_L1I WRITE        ACCESS:          0 HIT:          0 MISS:          0 MSHR_MERGE:          0
cpu0->cpu0_L1I TRANSLATION  ACCESS:          0 HIT:          0 MISS:          0 MSHR_MERGE:          0
cpu0->cpu0_L1I PREFETCH REQUESTED:          0 ISSUED:          0 USEFUL:          0 USELESS:          0
cpu0->cpu0_L1I AVERAGE MISS LATENCY: 270.3 cycles
cpu0->cpu0_L1D TOTAL        ACCESS:    9940351 HIT:    7289676 MISS:    2650675 MSHR_MERGE:    1740562
cpu0->cpu0_L1D LOAD         ACCESS:    6629963 HIT:    5293485 MISS:    1336478 MSHR_MERGE:     707000
cpu0->cpu0_L1D RFO          ACCESS:          0 HIT:          0 MISS:          0 MSHR_MERGE:          0
cpu0->cpu0_L1D PREFETCH     ACCESS:          0 HIT:          0 MISS:          0 MSHR_MERGE:          0
cpu0->cpu0_L1D WRITE        ACCESS:    3308669 HIT:    1995543 MISS:    1313126 MSHR_MERGE:    1033561
cpu0->cpu0_L1D TRANSLATION  ACCESS:       1719 HIT:        648 MISS:       1071 MSHR_MERGE:          1
cpu0->cpu0_L1D PREFETCH REQUESTED:          0 ISSUED:          0 USEFUL:          0 USELESS:          0
cpu0->cpu0_L1D AVERAGE MISS LATENCY: 88.96 cycles
cpu0->cpu0_ITLB TOTAL        ACCESS:    3101993 HIT:    3101971 MISS:         22 MSHR_MERGE:         16
cpu0->cpu0_ITLB LOAD         ACCESS:    3101993 HIT:    3101971 MISS:         22 MSHR_MERGE:         16
cpu0->cpu0_ITLB RFO          ACCESS:          0 HIT:          0 MISS:          0 MSHR_MERGE:          0
cpu0->cpu0_ITLB PREFETCH     ACCESS:          0 HIT:          0 MISS:          0 MSHR_MERGE:          0
cpu0->cpu0_ITLB WRITE        ACCESS:          0 HIT:          0 MISS:          0 MSHR_MERGE:          0
cpu0->cpu0_ITLB TRANSLATION  ACCESS:          0 HIT:          0 MISS:          0 MSHR_MERGE:          0
cpu0->cpu0_ITLB PREFETCH REQUESTED:          0 ISSUED:          0 USEFUL:          0 USELESS:          0
cpu0->cpu0_ITLB AVERAGE MISS LATENCY: 808 cycles
cpu0->cpu0_DTLB TOTAL        ACCESS:    9639187 HIT:    9611785 MISS:      27402 MSHR_MERGE:      11672
cpu0->cpu0_DTLB LOAD         ACCESS:    9639187 HIT:    9611785 MISS:      27402 MSHR_MERGE:      11672
cpu0->cpu0_DTLB RFO          ACCESS:          0 HIT:          0 MISS:          0 MSHR_MERGE:          0
cpu0->cpu0_DTLB PREFETCH     ACCESS:          0 HIT:          0 MISS:          0 MSHR_MERGE:          0
cpu0->cpu0_DTLB WRITE        ACCESS:          0 HIT:          0 MISS:          0 MSHR_MERGE:          0
cpu0->cpu0_DTLB TRANSLATION  ACCESS:          0 HIT:          0 MISS:          0 MSHR_MERGE:          0
cpu0->cpu0_DTLB PREFETCH REQUESTED:          0 ISSUED:          0 USEFUL:          0 USELESS:          0
cpu0->cpu0_DTLB AVERAGE MISS LATENCY: 42.86 cycles
cpu0->LLC TOTAL        ACCESS:     926998 HIT:     688493 MISS:     238505 MSHR_MERGE:          0
cpu0->LLC LOAD         ACCESS:     344153 HIT:     239794 MISS:     104359 MSHR_MERGE:          0
cpu0->LLC RFO          ACCESS:     263504 HIT:     130432 MISS:     133072 MSHR_MERGE:          0
cpu0->LLC PREFETCH     ACCESS:          0 HIT:          0 MISS:          0 MSHR_MERGE:          0
cpu0->LLC WRITE        ACCESS:     318275 HIT:     318261 MISS:         14 MSHR_MERGE:          0
cpu0->LLC TRANSLATION  ACCESS:       1066 HIT:          6 MISS:       1060 MSHR_MERGE:          0
cpu0->LLC PREFETCH REQUESTED:          0 ISSUED:          0 USEFUL:          0 USELESS:          0
cpu0->LLC AVERAGE MISS LATENCY: 268.1 cycles

DRAM Statistics

Channel 0 RQ ROW_BUFFER_HIT:      13477
  ROW_BUFFER_MISS:     224662
  AVG DBUS CONGESTED CYCLE: 9.863
Channel 0 WQ ROW_BUFFER_HIT:      42983
  ROW_BUFFER_MISS:     139040
  FULL:          0
Channel 0 REFRESHES ISSUED:       4077
