[VMEM] WARNING: physical memory size is smaller than virtual memory size.

*** ChampSim Multicore Out-of-Order Simulator ***
Warmup Instructions: 10000000
Simulation Instructions: 50000000
Number of CPUs: 1
Page size: 4096

Off-chip DRAM Size: 16 GiB Channels: 1 Width: 64-bit Data Rate: 3205 MT/s
Heartbeat CPU 0 instructions: 10000003 cycles: 3488191 heartbeat IPC: 2.867 cumulative IPC: 2.867 (Simulation time: 00 hr 00 min 25 sec)
Warmup finished CPU 0 instructions: 10000003 cycles: 3488191 cumulative IPC: 2.867 (Simulation time: 00 hr 00 min 25 sec)
Warmup complete CPU 0 instructions: 10000003 cycles: 3488191 cumulative IPC: 2.867 (Simulation time: 00 hr 00 min 25 sec)
Heartbeat CPU 0 instructions: 20000004 cycles: 45565652 heartbeat IPC: 0.2377 cumulative IPC: 0.2377 (Simulation time: 00 hr 02 min 42 sec)
Heartbeat CPU 0 instructions: 30000004 cycles: 87554970 heartbeat IPC: 0.2382 cumulative IPC: 0.2379 (Simulation time: 00 hr 04 min 58 sec)
Heartbeat CPU 0 instructions: 40000005 cycles: 129570851 heartbeat IPC: 0.238 cumulative IPC: 0.2379 (Simulation time: 00 hr 07 min 15 sec)
Heartbeat CPU 0 instructions: 50000009 cycles: 171592387 heartbeat IPC: 0.238 cumulative IPC: 0.2379 (Simulation time: 00 hr 09 min 32 sec)
Simulation finished CPU 0 instructions: 50000004 cycles: 210111377 cumulative IPC: 0.238 (Simulation time: 00 hr 11 min 48 sec)
Simulation complete CPU 0 instructions: 50000004 cycles: 210111377 cumulative IPC: 0.238 (Simulation time: 00 hr 11 min 48 sec)

ChampSim completed all CPUs

=== Simulation ===
CPU 0 runs traces/602.gcc_s-1850B.champsimtrace.xz

Region of Interest Statistics

CPU 0 cumulative IPC: 0.238 instructions: 50000004 cycles: 210111377
CPU 0 Branch Prediction Accuracy: 92.26% MPKI: 19.85 Average ROB Occupancy at Mispredict: 28.67
Branch type MPKI
BRANCH_DIRECT_JUMP: 0.01114
BRANCH_INDIRECT: 0
BRANCH_CONDITIONAL: 19.84
BRANCH_DIRECT_CALL: 0
BRANCH_INDIRECT_CALL: 0
BRANCH_RETURN: 0

cpu0->cpu0_STLB TOTAL        ACCESS:      16343 HIT:       1124 MISS:      15219 MSHR_MERGE:          0
cpu0->cpu0_STLB LOAD         ACCESS:      16343 HIT:       1124 MISS:      15219 MSHR_MERGE:          0
cpu0->cpu0_STLB RFO          ACCESS:          0 HIT:          0 MISS:          0 MSHR_MERGE:          0
cpu0->cpu0_STLB PREFETCH     ACCESS:          0 HIT:          0 MISS:          0 MSHR_MERGE:          0
cpu0->cpu0_STLB WRITE        ACCESS:          0 HIT:          0 MISS:          0 MSHR_MERGE:          0
cpu0->cpu0_STLB TRANSLATION  ACCESS:          0 HIT:          0 MISS:          0 MSHR_MERGE:          0
cpu0->cpu0_STLB PREFETCH REQUESTED:          0 ISSUED:          0 USEFUL:          0 USELESS:          0
cpu0->cpu0_STLB AVERAGE MISS LATENCY: 670.6 cycles
cpu0->cpu0_L2C TOTAL        ACCESS:    1229316 HIT:     320136 MISS:     909180 MSHR_MERGE:          0
cpu0->cpu0_L2C LOAD         ACCESS:    1206983 HIT:     317209 MISS:     889774 MSHR_MERGE:          0
cpu0->cpu0_L2C RFO          ACCESS:        396 HIT:          0 MISS:        396 MSHR_MERGE:          0
cpu0->cpu0_L2C PREFETCH     ACCESS:          0 HIT:          0 MISS:          0 MSHR_MERGE:          0
cpu0->cpu0_L2C WRITE        ACCESS:       3148 HIT:       2788 MISS:        360 MSHR_MERGE:          0
cpu0->cpu0_L2C TRANSLATION  ACCESS:      18789 HIT:        139 MISS:      18650 MSHR_MERGE:          0
cpu0->cpu0_L2C PREFETCH REQUESTED:          0 ISSUED:          0 USEFUL:          0 USELESS:          0
cpu0->cpu0_L2C AVERAGE MISS LATENCY: 160.8 cycles
cpu0->cpu0_L1I TOTAL        ACCESS:        381 HIT:        381 MISS:          0 MSHR_MERGE:          0
cpu0->cpu0_L1I LOAD         ACCESS:        381 HIT:        381 MISS:          0 MSHR_MERGE:          0
cpu0->cpu0_L1I RFO          ACCESS:          0 HIT:          0 MISS:          0 MSHR_MERGE:          0
cpu0->cpu0_L1I PREFETCH     ACCESS:          0 HIT:          0 MISS:          0 MSHR_MERGE:          0
cpu0->cpu0_L1I WRITE        ACCESS:          0 HIT:          0 MISS:          0 MSHR_MERGE:          0
cpu0->cpu0_L1I TRANSLATION  ACCESS:          0 HIT:          0 MISS:          0 MSHR_MERGE:          0
cpu0->cpu0_L1I PREFETCH REQUESTED:          0 ISSUED:          0 USEFUL:          0 USELESS:          0
cpu0->cpu0_L1I AVERAGE MISS LATENCY: - cycles
cpu0->cpu0_L1D TOTAL        ACCESS:   14953022 HIT:   12838369 MISS:    2114653 MSHR_MERGE:     888486
cpu0->cpu0_L1D LOAD         ACCESS:   10606849 HIT:    8511381 MISS:    2095468 MSHR_MERGE:     888486
cpu0->cpu0_L1D RFO          ACCESS:          0 HIT:          0 MISS:          0 MSHR_MERGE:          0
cpu0->cpu0_L1D PREFETCH     ACCESS:          0 HIT:          0 MISS:          0 MSHR_MERGE:          0
cpu0->cpu0_L1D WRITE        ACCESS:    4315581 HIT:    4315185 MISS:        396 MSHR_MERGE:          0
cpu0->cpu0_L1D TRANSLATION  ACCESS:      30592 HIT:      11803 MISS:      18789 MSHR_MERGE:          0
cpu0->cpu0_L1D PREFETCH REQUESTED:          0 ISSUED:          0 USEFUL:          0 USELESS:          0
cpu0->cpu0_L1D AVERAGE MISS LATENCY: 127.9 cycles
cpu0->cpu0_ITLB TOTAL        ACCESS:        288 HIT:        288 MISS:          0 MSHR_MERGE:          0
cpu0->cpu0_ITLB LOAD         ACCESS:        288 HIT:        288 MISS:          0 MSHR_MERGE:          0
cpu0->cpu0_ITLB RFO          ACCESS:          0 HIT:          0 MISS:          0 MSHR_MERGE:          0
cpu0->cpu0_ITLB PREFETCH     ACCESS:          0 HIT:          0 MISS:          0 MSHR_MERGE:          0
cpu0->cpu0_ITLB WRITE        ACCESS:          0 HIT:          0 MISS:          0 MSHR_MERGE:          0
cpu0->cpu0_ITLB TRANSLATION  ACCESS:          0 HIT:          0 MISS:          0 MSHR_MERGE:          0
cpu0->cpu0_ITLB PREFETCH REQUESTED:          0 ISSUED:          0 USEFUL:          0 USELESS:          0
cpu0->cpu0_ITLB AVERAGE MISS LATENCY: - cycles
cpu0->cpu0_DTLB TOTAL        ACCESS:   14534703 HIT:   14504362 MISS:      30341 MSHR_MERGE:      13998
cpu0->cpu0_DTLB LOAD         ACCESS:   14534703 HIT:   14504362 MISS:      30341 MSHR_MERGE:      13998
cpu0->cpu0_DTLB RFO          ACCESS:          0 HIT:          0 MISS:          0 MSHR_MERGE:          0
cpu0->cpu0_DTLB PREFETCH     ACCESS:          0 HIT:          0 MISS:          0 MSHR_MERGE:          0
cpu0->cpu0_DTLB WRITE        ACCESS:          0 HIT:          0 MISS:          0 MSHR_MERGE:          0
cpu0->cpu0_DTLB TRANSLATION  ACCESS:          0 HIT:          0 MISS:          0 MSHR_MERGE:          0
cpu0->cpu0_DTLB PREFETCH REQUESTED:          0 ISSUED:          0 USEFUL:          0 USELESS:          0
cpu0->cpu0_DTLB AVERAGE MISS LATENCY: 630.4 cycles
cpu0->LLC TOTAL        ACCESS:     910049 HIT:       2929 MISS:     907120 MSHR_MERGE:          0
cpu0->LLC LOAD         ACCESS:     889774 HIT:       1885 MISS:     887889 MSHR_MERGE:          0
cpu0->LLC RFO          ACCESS:        396 HIT:          0 MISS:        396 MSHR_MERGE:          0
cpu0->LLC PREFETCH     ACCESS:          0 HIT:          0 MISS:          0 MSHR_MERGE:          0
cpu0->LLC WRITE        ACCESS:       1229 HIT:        495 MISS:        734 MSHR_MERGE:          0
cpu0->LLC TRANSLATION  ACCESS:      18650 HIT:        549 MISS:      18101 MSHR_MERGE:          0
cpu0->LLC PREFETCH REQUESTED:          0 ISSUED:          0 USEFUL:          0 USELESS:          0
cpu0->LLC AVERAGE MISS LATENCY: 145.1 cycles

DRAM Statistics

Channel 0 RQ ROW_BUFFER_HIT:     207298
  ROW_BUFFER_MISS:     699088
  AVG DBUS CONGESTED CYCLE: 21.24
Channel 0 WQ ROW_BUFFER_HIT:        401
  ROW_BUFFER_MISS:        790
  FULL:          0
Channel 0 REFRESHES ISSUED:      17509
