[VMEM] WARNING: physical memory size is smaller than virtual memory size.

*** ChampSim Multicore Out-of-Order Simulator ***
Warmup Instructions: 10000000
Simulation Instructions: 50000000
Number of CPUs: 1
Page size: 4096

Off-chip DRAM Size: 16 GiB Channels: 1 Width: 64-bit Data Rate: 3205 MT/s
Heartbeat CPU 0 instructions: 10000001 cycles: 3398587 heartbeat IPC: 2.942 cumulative IPC: 2.942 (Simulation time: 00 hr 00 min 25 sec)
Warmup finished CPU 0 instructions: 10000001 cycles: 3398587 cumulative IPC: 2.942 (Simulation time: 00 hr 00 min 25 sec)
Warmup complete CPU 0 instructions: 10000001 cycles: 3398587 cumulative IPC: 2.942 (Simulation time: 00 hr 00 min 25 sec)
Heartbeat CPU 0 instructions: 20000002 cycles: 12766670 heartbeat IPC: 1.067 cumulative IPC: 1.067 (Simulation time: 00 hr 01 min 06 sec)
Heartbeat CPU 0 instructions: 30000005 cycles: 22027908 heartbeat IPC: 1.08 cumulative IPC: 1.074 (Simulation time: 00 hr 01 min 46 sec)
Heartbeat CPU 0 instructions: 40000005 cycles: 31238877 heartbeat IPC: 1.086 cumulative IPC: 1.078 (Simulation time: 00 hr 02 min 27 sec)
Heartbeat CPU 0 instructions: 50000009 cycles: 40390245 heartbeat IPC: 1.093 cumulative IPC: 1.081 (Simulation time: 00 hr 03 min 07 sec)
Simulation finished CPU 0 instructions: 50000003 cycles: 46363521 cumulative IPC: 1.078 (Simulation time: 00 hr 03 min 47 sec)
Simulation complete CPU 0 instructions: 50000003 cycles: 46363521 cumulative IPC: 1.078 (Simulation time: 00 hr 03 min 47 sec)

ChampSim completed all CPUs

=== Simulation ===
CPU 0 runs traces/631.deepsjeng_s-928B.champsimtrace.xz

Region of Interest Statistics

CPU 0 cumulative IPC: 1.078 instructions: 50000003 cycles: 46363521
CPU 0 Branch Prediction Accuracy: 89.86% MPKI: 15.07 Average ROB Occupancy at Mispredict: 29.12
Branch type MPKI
BRANCH_DIRECT_JUMP: 0.01754
BRANCH_INDIRECT: 0.01102
BRANCH_CONDITIONAL: 14.54
BRANCH_DIRECT_CALL: 0.01738
BRANCH_INDIRECT_CALL: 0
BRANCH_RETURN: 0.4758

cpu0->cpu0_STLB TOTAL        ACCESS:      13767 HIT:       4627 MISS:       9140 MSHR_MERGE:          0
cpu0->cpu0_STLB LOAD         ACCESS:      13767 HIT:       4627 MISS:       9140 MSHR_MERGE:          0
cpu0->cpu0_STLB RFO          ACCESS:          0 HIT:          0 MISS:          0 MSHR_MERGE:          0
cpu0->cpu0_STLB PREFETCH     ACCESS:          0 HIT:          0 MISS:          0 MSHR_MERGE:          0
cpu0->cpu0_STLB WRITE        ACCESS:          0 HIT:          0 MISS:          0 MSHR_MERGE:          0
cpu0->cpu0_STLB TRANSLATION  ACCESS:          0 HIT:          0 MISS:          0 MSHR_MERGE:          0
cpu0->cpu0_STLB PREFETCH REQUESTED:          0 ISSUED:          0 USEFUL:          0 USELESS:          0
cpu0->cpu0_STLB AVERAGE MISS LATENCY: 851.2 cycles
cpu0->cpu0_L2C TOTAL        ACCESS:     144068 HIT:     104224 MISS:      39844 MSHR_MERGE:          0
cpu0->cpu0_L2C LOAD         ACCESS:      75352 HIT:      59887 MISS:      15465 MSHR_MERGE:          0
cpu0->cpu0_L2C RFO          ACCESS:      14742 HIT:      13746 MISS:        996 MSHR_MERGE:          0
cpu0->cpu0_L2C PREFETCH     ACCESS:          0 HIT:          0 MISS:          0 MSHR_MERGE:          0
cpu0->cpu0_L2C WRITE        ACCESS:      27158 HIT:      27099 MISS:         59 MSHR_MERGE:          0
cpu0->cpu0_L2C TRANSLATION  ACCESS:      26816 HIT:       3492 MISS:      23324 MSHR_MERGE:          0
cpu0->cpu0_L2C PREFETCH REQUESTED:          0 ISSUED:          0 USEFUL:          0 USELESS:          0
cpu0->cpu0_L2C AVERAGE MISS LATENCY: 153.2 cycles
cpu0->cpu0_L1I TOTAL        ACCESS:    5825321 HIT:    5766252 MISS:      59069 MSHR_MERGE:      14110
cpu0->cpu0_L1I LOAD         ACCESS:    5825321 HIT:    5766252 MISS:      59069 MSHR_MERGE:      14110
cpu0->cpu0_L1I RFO          ACCESS:          0 HIT:          0 MISS:          0 MSHR_MERGE:          0
cpu0->cpu0_L1I PREFETCH     ACCESS:          0 HIT:          0 MISS:          0 MSHR_MERGE:          0
cpu0->cpu0_L1I WRITE        ACCESS:          0 HIT:          0 MISS:          0 MSHR_MERGE:          0
cpu0->cpu0_L1I TRANSLATION  ACCESS:          0 HIT:          0 MISS:          0 MSHR_MERGE:          0
cpu0->cpu0_L1I PREFETCH REQUESTED:          0 ISSUED:          0 USEFUL:          0 USELESS:          0
cpu0->cpu0_L1I AVERAGE MISS LATENCY: 7.312 cycles
cpu0->cpu0_L1D TOTAL        ACCESS:   15198797 HIT:   15092592 MISS:     106205 MSHR_MERGE:      34250
cpu0->cpu0_L1D LOAD         ACCESS:    9205509 HIT:    9164909 MISS:      40600 MSHR_MERGE:      10203
cpu0->cpu0_L1D RFO          ACCESS:          0 HIT:          0 MISS:          0 MSHR_MERGE:          0
cpu0->cpu0_L1D PREFETCH     ACCESS:          0 HIT:          0 MISS:          0 MSHR_MERGE:          0
cpu0->cpu0_L1D WRITE        ACCESS:    5965733 HIT:    5927001 MISS:      38732 MSHR_MERGE:      23990
cpu0->cpu0_L1D TRANSLATION  ACCESS:      27555 HIT:        682 MISS:      26873 MSHR_MERGE:         57
cpu0->cpu0_L1D PREFETCH REQUESTED:          0 ISSUED:          0 USEFUL:          0 USELESS:          0
cpu0->cpu0_L1D AVERAGE MISS LATENCY: 93.26 cycles
cpu0->cpu0_ITLB TOTAL        ACCESS:    4950322 HIT:    4950322 MISS:          0 MSHR_MERGE:          0
cpu0->cpu0_ITLB LOAD         ACCESS:    4950322 HIT:    4950322 MISS:          0 MSHR_MERGE:          0
cpu0->cpu0_ITLB RFO          ACCESS:          0 HIT:          0 MISS:          0 MSHR_MERGE:          0
cpu0->cpu0_ITLB PREFETCH     ACCESS:          0 HIT:          0 MISS:          0 MSHR_MERGE:          0
cpu0->cpu0_ITLB WRITE        ACCESS:          0 HIT:          0 MISS:          0 MSHR_MERGE:          0
cpu0->cpu0_ITLB TRANSLATION  ACCESS:          0 HIT:          0 MISS:          0 MSHR_MERGE:          0
cpu0->cpu0_ITLB PREFETCH REQUESTED:          0 ISSUED:          0 USEFUL:          0 USELESS:          0
cpu0->cpu0_ITLB AVERAGE MISS LATENCY: - cycles
cpu0->cpu0_DTLB TOTAL        ACCESS:   14277789 HIT:   14251137 MISS:      26652 MSHR_MERGE:      12885
cpu0->cpu0_DTLB LOAD         ACCESS:   14277789 HIT:   14251137 MISS:      26652 MSHR_MERGE:      12885
cpu0->cpu0_DTLB RFO          ACCESS:          0 HIT:          0 MISS:          0 MSHR_MERGE:          0
cpu0->cpu0_DTLB PREFETCH     ACCESS:          0 HIT:          0 MISS:          0 MSHR_MERGE:          0
cpu0->cpu0_DTLB WRITE        ACCESS:          0 HIT:          0 MISS:          0 MSHR_MERGE:          0
cpu0->cpu0_DTLB TRANSLATION  ACCESS:          0 HIT:          0 MISS:          0 MSHR_MERGE:          0
cpu0->cpu0_DTLB PREFETCH REQUESTED:          0 ISSUED:          0 USEFUL:          0 USELESS:          0
cpu0->cpu0_DTLB AVERAGE MISS LATENCY: 570.8 cycles
cpu0->LLC TOTAL        ACCESS:      50634 HIT:      16607 MISS:      34027 MSHR_MERGE:          0
cpu0->LLC LOAD         ACCESS:      15465 HIT:       1166 MISS:      14299 MSHR_MERGE:          0
cpu0->LLC RFO          ACCESS:        996 HIT:        615 MISS:        381 MSHR_MERGE:          0
cpu0->LLC PREFETCH     ACCESS:          0 HIT:          0 MISS:          0 MSHR_MERGE:          0
cpu0->LLC WRITE        ACCESS:      10849 HIT:      10786 MISS:         63 MSHR_MERGE:          0
cpu0->LLC TRANSLATION  ACCESS:      23324 HIT:       4040 MISS:      19284 MSHR_MERGE:          0
cpu0->LLC PREFETCH REQUESTED:          0 ISSUED:          0 USEFUL:          0 USELESS:          0
cpu0->LLC AVERAGE MISS LATENCY: 160.9 cycles

DRAM Statistics

Channel 0 RQ ROW_BUFFER_HIT:         15
  ROW_BUFFER_MISS:      33949
  AVG DBUS CONGESTED CYCLE: 5.985
Channel 0 WQ ROW_BUFFER_HIT:         58
  ROW_BUFFER_MISS:       3192
  FULL:          0
Channel 0 REFRESHES ISSUED:       3863
