[VMEM] WARNING: physical memory size is smaller than virtual memory size.

*** ChampSim Multicore Out-of-Order Simulator ***
Warmup Instructions: 10000000
Simulation Instructions: 50000000
Number of CPUs: 1
Page size: 4096

Off-chip DRAM Size: 16 GiB Channels: 1 Width: 64-bit Data Rate: 3205 MT/s
Heartbeat CPU 0 instructions: 10000001 cycles: 2805210 heartbeat IPC: 3.565 cumulative IPC: 3.565 (Simulation time: 00 hr 00 min 24 sec)
Warmup finished CPU 0 instructions: 10000001 cycles: 2805210 cumulative IPC: 3.565 (Simulation time: 00 hr 00 min 24 sec)
Warmup complete CPU 0 instructions: 10000001 cycles: 2805210 cumulative IPC: 3.565 (Simulation time: 00 hr 00 min 24 sec)
Heartbeat CPU 0 instructions: 20000001 cycles: 14224104 heartbeat IPC: 0.8757 cumulative IPC: 0.8757 (Simulation time: 00 hr 01 min 18 sec)
Heartbeat CPU 0 instructions: 30000005 cycles: 25734084 heartbeat IPC: 0.8688 cumulative IPC: 0.8723 (Simulation time: 00 hr 02 min 13 sec)
Heartbeat CPU 0 instructions: 40000008 cycles: 37212419 heartbeat IPC: 0.8712 cumulative IPC: 0.8719 (Simulation time: 00 hr 03 min 09 sec)
Heartbeat CPU 0 instructions: 50000009 cycles: 48636687 heartbeat IPC: 0.8753 cumulative IPC: 0.8728 (Simulation time: 00 hr 04 min 04 sec)
Simulation finished CPU 0 instructions: 50000004 cycles: 57320914 cumulative IPC: 0.8723 (Simulation time: 00 hr 04 min 59 sec)
Simulation complete CPU 0 instructions: 50000004 cycles: 57320914 cumulative IPC: 0.8723 (Simulation time: 00 hr 04 min 59 sec)

ChampSim completed all CPUs

=== Simulation ===
CPU 0 runs traces/603.bwaves_s-2931B.champsimtrace.xz

Region of Interest Statistics

CPU 0 cumulative IPC: 0.8723 instructions: 50000004 cycles: 57320914
CPU 0 Branch Prediction Accuracy: 80.62% MPKI: 1.636 Average ROB Occupancy at Mispredict: 296.8
Branch type MPKI
BRANCH_DIRECT_JUMP: 0
BRANCH_INDIRECT: 0
BRANCH_CONDITIONAL: 1.636
BRANCH_DIRECT_CALL: 0
BRANCH_INDIRECT_CALL: 0
BRANCH_RETURN: 0

cpu0->cpu0_STLB TOTAL        ACCESS:      86989 HIT:      76345 MISS:      10644 MSHR_MERGE:          0
cpu0->cpu0_STLB LOAD         ACCESS:      86989 HIT:      76345 MISS:      10644 MSHR_MERGE:          0
cpu0->cpu0_STLB RFO          ACCESS:          0 HIT:          0 MISS:          0 MSHR_MERGE:          0
cpu0->cpu0_STLB PREFETCH     ACCESS:          0 HIT:          0 MISS:          0 MSHR_MERGE:          0
cpu0->cpu0_STLB WRITE        ACCESS:          0 HIT:          0 MISS:          0 MSHR_MERGE:          0
cpu0->cpu0_STLB TRANSLATION  ACCESS:          0 HIT:          0 MISS:          0 MSHR_MERGE:          0
cpu0->cpu0_STLB PREFETCH REQUESTED:          0 ISSUED:          0 USEFUL:          0 USELESS:          0
cpu0->cpu0_STLB AVERAGE MISS LATENCY: 700.4 cycles
cpu0->cpu0_L2C TOTAL        ACCESS:    1173837 HIT:     427958 MISS:     745879 MSHR_MERGE:          0
cpu0->cpu0_L2C LOAD         ACCESS:     518471 HIT:      82592 MISS:     435879 MSHR_MERGE:          0
cpu0->cpu0_L2C RFO          ACCESS:     315114 HIT:      17418 MISS:     297696 MSHR_MERGE:          0
cpu0->cpu0_L2C PREFETCH     ACCESS:          0 HIT:          0 MISS:          0 MSHR_MERGE:          0
cpu0->cpu0_L2C WRITE        ACCESS:     319011 HIT:     318977 MISS:         34 MSHR_MERGE:          0
cpu0->cpu0_L2C TRANSLATION  ACCESS:      21241 HIT:       8971 MISS:      12270 MSHR_MERGE:          0
cpu0->cpu0_L2C PREFETCH REQUESTED:          0 ISSUED:          0 USEFUL:          0 USELESS:          0
cpu0->cpu0_L2C AVERAGE MISS LATENCY: 223.8 cycles
cpu0->cpu0_L1I TOTAL        ACCESS:    5672176 HIT:    5672168 MISS:          8 MSHR_MERGE:          1
cpu0->cpu0_L1I LOAD         ACCESS:    5672176 HIT:    5672168 MISS:          8 MSHR_MERGE:          1
cpu0->cpu0_L1I RFO          ACCESS:          0 HIT:          0 MISS:          0 MSHR_MERGE:          0
cpu0->cpu0_L1I PREFETCH     ACCESS:          0 HIT:          0 MISS:          0 MSHR_MERGE:          0
cpu0->cpu0_L1I WRITE        ACCESS:          0 HIT:          0 MISS:          0 MSHR_MERGE:          0
cpu0->cpu0_L1I TRANSLATION  ACCESS:          0 HIT:          0 MISS:          0 MSHR_MERGE:          0
cpu0->cpu0_L1I PREFETCH REQUESTED:          0 ISSUED:          0 USEFUL:          0 USELESS:          0
cpu0->cpu0_L1I AVERAGE MISS LATENCY: 236.4 cycles
cpu0->cpu0_L1D TOTAL        ACCESS:   17005240 HIT:   15384423 MISS:    1620817 MSHR_MERGE:     765658
cpu0->cpu0_L1D LOAD         ACCESS:    7837601 HIT:    7312453 MISS:     525148 MSHR_MERGE:       6656
cpu0->cpu0_L1D RFO          ACCESS:          0 HIT:          0 MISS:          0 MSHR_MERGE:          0
cpu0->cpu0_L1D PREFETCH     ACCESS:          0 HIT:          0 MISS:          0 MSHR_MERGE:          0
cpu0->cpu0_L1D WRITE        ACCESS:    9146324 HIT:    8071899 MISS:    1074425 MSHR_MERGE:     758999
cpu0->cpu0_L1D TRANSLATION  ACCESS:      21315 HIT:         71 MISS:      21244 MSHR_MERGE:          3
cpu0->cpu0_L1D PREFETCH REQUESTED:          0 ISSUED:          0 USEFUL:          0 USELESS:          0
cpu0->cpu0_L1D AVERAGE MISS LATENCY: 204.1 cycles
cpu0->cpu0_ITLB TOTAL        ACCESS:    4533512 HIT:    4533512 MISS:          0 MSHR_MERGE:          0
cpu0->cpu0_ITLB LOAD         ACCESS:    4533512 HIT:    4533512 MISS:          0 MSHR_MERGE:          0
cpu0->cpu0_ITLB RFO          ACCESS:          0 HIT:          0 MISS:          0 MSHR_MERGE:          0
cpu0->cpu0_ITLB PREFETCH     ACCESS:          0 HIT:          0 MISS:          0 MSHR_MERGE:          0
cpu0->cpu0_ITLB WRITE        ACCESS:          0 HIT:          0 MISS:          0 MSHR_MERGE:          0
cpu0->cpu0_ITLB TRANSLATION  ACCESS:          0 HIT:          0 MISS:          0 MSHR_MERGE:          0
cpu0->cpu0_ITLB PREFETCH REQUESTED:          0 ISSUED:          0 USEFUL:          0 USELESS:          0
cpu0->cpu0_ITLB AVERAGE MISS LATENCY: - cycles
cpu0->cpu0_DTLB TOTAL        ACCESS:   15714292 HIT:   15616918 MISS:      97374 MSHR_MERGE:      10385
cpu0->cpu0_DTLB LOAD         ACCESS:   15714292 HIT:   15616918 MISS:      97374 MSHR_MERGE:      10385
cpu0->cpu0_DTLB RFO          ACCESS:          0 HIT:          0 MISS:          0 MSHR_MERGE:          0
cpu0->cpu0_DTLB PREFETCH     ACCESS:          0 HIT:          0 MISS:          0 MSHR_MERGE:          0
cpu0->cpu0_DTLB WRITE        ACCESS:          0 HIT:          0 MISS:          0 MSHR_MERGE:          0
cpu0->cpu0_DTLB TRANSLATION  ACCESS:          0 HIT:          0 MISS:          0 MSHR_MERGE:          0
cpu0->cpu0_DTLB PREFETCH REQUESTED:          0 ISSUED:          0 USEFUL:          0 USELESS:          0
cpu0->cpu0_DTLB AVERAGE MISS LATENCY: 90.83 cycles
cpu0->LLC TOTAL        ACCESS:    1043446 HIT:     349543 MISS:     693903 MSHR_MERGE:          0
cpu0->LLC LOAD         ACCESS:     435879 HIT:      52005 MISS:     383874 MSHR_MERGE:          0
cpu0->LLC RFO          ACCESS:     297696 HIT:          0 MISS:     297696 MSHR_MERGE:          0
cpu0->LLC PREFETCH     ACCESS:          0 HIT:          0 MISS:          0 MSHR_MERGE:          0
cpu0->LLC WRITE        ACCESS:     297601 HIT:     297537 MISS:         64 MSHR_MERGE:          0
cpu0->LLC TRANSLATION  ACCESS:      12270 HIT:          1 MISS:      12269 MSHR_MERGE:          0
cpu0->LLC PREFETCH REQUESTED:          0 ISSUED:          0 USEFUL:          0 USELESS:          0
cpu0->LLC AVERAGE MISS LATENCY: 223.4 cycles

DRAM Statistics

Channel 0 RQ ROW_BUFFER_HIT:          9
  ROW_BUFFER_MISS:     693829
  AVG DBUS CONGESTED CYCLE: 11.84
Channel 0 WQ ROW_BUFFER_HIT:     106299
  ROW_BUFFER_MISS:     191700
  FULL:          0
Channel 0 REFRESHES ISSUED:       4777
