[VMEM] WARNING: physical memory size is smaller than virtual memory size.

*** ChampSim Multicore Out-of-Order Simulator ***
Warmup Instructions: 10000000
Simulation Instructions: 50000000
Number of CPUs: 1
Page size: 4096

Off-chip DRAM Size: 16 GiB Channels: 1 Width: 64-bit Data Rate: 3205 MT/s
Heartbeat CPU 0 instructions: 10000000 cycles: 3548384 heartbeat IPC: 2.818 cumulative IPC: 2.818 (Simulation time: 00 hr 00 min 27 sec)
Warmup finished CPU 0 instructions: 10000000 cycles: 3548384 cumulative IPC: 2.818 (Simulation time: 00 hr 00 min 27 sec)
Warmup complete CPU 0 instructions: 10000000 cycles: 3548384 cumulative IPC: 2.818 (Simulation time: 00 hr 00 min 27 sec)
Heartbeat CPU 0 instructions: 20000001 cycles: 24937323 heartbeat IPC: 0.4675 cumulative IPC: 0.4675 (Simulation time: 00 hr 02 min 29 sec)
Heartbeat CPU 0 instructions: 30000003 cycles: 45878303 heartbeat IPC: 0.4775 cumulative IPC: 0.4725 (Simulation time: 00 hr 04 min 29 sec)
Heartbeat CPU 0 instructions: 40000004 cycles: 66005587 heartbeat IPC: 0.4968 cumulative IPC: 0.4803 (Simulation time: 00 hr 06 min 25 sec)
Heartbeat CPU 0 instructions: 50000006 cycles: 85432787 heartbeat IPC: 0.5147 cumulative IPC: 0.4885 (Simulation time: 00 hr 08 min 17 sec)
Simulation finished CPU 0 instructions: 50000000 cycles: 100517965 cumulative IPC: 0.4974 (Simulation time: 00 hr 10 min 04 sec)
Simulation complete CPU 0 instructions: 50000000 cycles: 100517965 cumulative IPC: 0.4974 (Simulation time: 00 hr 10 min 04 sec)

ChampSim completed all CPUs

=== Simulation ===
CPU 0 runs traces/619.lbm_s-2676B.champsimtrace.xz

Region of Interest Statistics

CPU 0 cumulative IPC: 0.4974 instructions: 50000000 cycles: 100517965
CPU 0 Branch Prediction Accuracy: 95.94% MPKI: 0.6505 Average ROB Occupancy at Mispredict: 212.7
Branch type MPKI
BRANCH_DIRECT_JUMP: 0
BRANCH_INDIRECT: 0
BRANCH_CONDITIONAL: 0.6505
BRANCH_DIRECT_CALL: 0
BRANCH_INDIRECT_CALL: 0
BRANCH_RETURN: 0

cpu0->cpu0_STLB TOTAL        ACCESS:      58518 HIT:      26765 MISS:      31753 MSHR_MERGE:          0
cpu0->cpu0_STLB LOAD         ACCESS:      58518 HIT:      26765 MISS:      31753 MSHR_MERGE:          0
cpu0->cpu0_STLB RFO          ACCESS:          0 HIT:          0 MISS:          0 MSHR_MERGE:          0
cpu0->cpu0_STLB PREFETCH     ACCESS:          0 HIT:          0 MISS:          0 MSHR_MERGE:          0
cpu0->cpu0_STLB WRITE        ACCESS:          0 HIT:          0 MISS:          0 MSHR_MERGE:          0
cpu0->cpu0_STLB TRANSLATION  ACCESS:          0 HIT:          0 MISS:          0 MSHR_MERGE:          0
cpu0->cpu0_STLB PREFETCH REQUESTED:          0 ISSUED:          0 USEFUL:          0 USELESS:          0
cpu0->cpu0_STLB AVERAGE MISS LATENCY: 889.4 cycles
cpu0->cpu0_L2C TOTAL        ACCESS:    6272929 HIT:    4130769 MISS:    2142160 MSHR_MERGE:          0
cpu0->cpu0_L2C LOAD         ACCESS:     507941 HIT:         12 MISS:     507929 MSHR_MERGE:          0
cpu0->cpu0_L2C RFO          ACCESS:    2864589 HIT:    1266178 MISS:    1598411 MSHR_MERGE:          0
cpu0->cpu0_L2C PREFETCH     ACCESS:          0 HIT:          0 MISS:          0 MSHR_MERGE:          0
cpu0->cpu0_L2C WRITE        ACCESS:    2864646 HIT:    2864579 MISS:         67 MSHR_MERGE:          0
cpu0->cpu0_L2C TRANSLATION  ACCESS:      35753 HIT:          0 MISS:      35753 MSHR_MERGE:          0
cpu0->cpu0_L2C PREFETCH REQUESTED:          0 ISSUED:          0 USEFUL:          0 USELESS:          0
cpu0->cpu0_L2C AVERAGE MISS LATENCY: 467.4 cycles
cpu0->cpu0_L1I TOTAL        ACCESS:    8012737 HIT:    8012737 MISS:          0 MSHR_MERGE:          0
cpu0->cpu0_L1I LOAD         ACCESS:    8012737 HIT:    8012737 MISS:          0 MSHR_MERGE:          0
cpu0->cpu0_L1I RFO          ACCESS:          0 HIT:          0 MISS:          0 MSHR_MERGE:          0
cpu0->cpu0_L1I PREFETCH     ACCESS:          0 HIT:          0 MISS:          0 MSHR_MERGE:          0
cpu0->cpu0_L1I WRITE        ACCESS:          0 HIT:          0 MISS:          0 MSHR_MERGE:          0
cpu0->cpu0_L1I TRANSLATION  ACCESS:          0 HIT:          0 MISS:          0 MSHR_MERGE:          0
cpu0->cpu0_L1I PREFETCH REQUESTED:          0 ISSUED:          0 USEFUL:          0 USELESS:          0
cpu0->cpu0_L1I AVERAGE MISS LATENCY: - cycles
cpu0->cpu0_L1D TOTAL        ACCESS:   11864759 HIT:    7652247 MISS:    4212512 MSHR_MERGE:     804171
cpu0->cpu0_L1D LOAD         ACCESS:    3093153 HIT:    1908932 MISS:    1184221 MSHR_MERGE:     676280
cpu0->cpu0_L1D RFO          ACCESS:          0 HIT:          0 MISS:          0 MSHR_MERGE:          0
cpu0->cpu0_L1D PREFETCH     ACCESS:          0 HIT:          0 MISS:          0 MSHR_MERGE:          0
cpu0->cpu0_L1D WRITE        ACCESS:    8708068 HIT:    5715530 MISS:    2992538 MSHR_MERGE:     127891
cpu0->cpu0_L1D TRANSLATION  ACCESS:      63538 HIT:      27785 MISS:      35753 MSHR_MERGE:          0
cpu0->cpu0_L1D PREFETCH REQUESTED:          0 ISSUED:          0 USEFUL:          0 USELESS:          0
cpu0->cpu0_L1D AVERAGE MISS LATENCY: 303.3 cycles
cpu0->cpu0_ITLB TOTAL        ACCESS:    5965229 HIT:    5965229 MISS:          0 MSHR_MERGE:          0
cpu0->cpu0_ITLB LOAD         ACCESS:    5965229 HIT:    5965229 MISS:          0 MSHR_MERGE:          0
cpu0->cpu0_ITLB RFO          ACCESS:          0 HIT:          0 MISS:          0 MSHR_MERGE:          0
cpu0->cpu0_ITLB PREFETCH     ACCESS:          0 HIT:          0 MISS:          0 MSHR_MERGE:          0
cpu0->cpu0_ITLB WRITE        ACCESS:          0 HIT:          0 MISS:          0 MSHR_MERGE:          0
cpu0->cpu0_ITLB TRANSLATION  ACCESS:          0 HIT:          0 MISS:          0 MSHR_MERGE:          0
cpu0->cpu0_ITLB PREFETCH REQUESTED:          0 ISSUED:          0 USEFUL:          0 USELESS:          0
cpu0->cpu0_ITLB AVERAGE MISS LATENCY: - cycles
cpu0->cpu0_DTLB TOTAL        ACCESS:   11088262 HIT:   10922126 MISS:     166136 MSHR_MERGE:     107618
cpu0->cpu0_DTLB LOAD         ACCESS:   11088262 HIT:   10922126 MISS:     166136 MSHR_MERGE:     107618
cpu0->cpu0_DTLB RFO          ACCESS:          0 HIT:          0 MISS:          0 MSHR_MERGE:          0
cpu0->cpu0_DTLB PREFETCH     ACCESS:          0 HIT:          0 MISS:          0 MSHR_MERGE:          0
cpu0->cpu0_DTLB WRITE        ACCESS:          0 HIT:          0 MISS:          0 MSHR_MERGE:          0
cpu0->cpu0_DTLB TRANSLATION  ACCESS:          0 HIT:          0 MISS:          0 MSHR_MERGE:          0
cpu0->cpu0_DTLB PREFETCH REQUESTED:          0 ISSUED:          0 USEFUL:          0 USELESS:          0
cpu0->cpu0_DTLB AVERAGE MISS LATENCY: 488.1 cycles
cpu0->LLC TOTAL        ACCESS:    3740288 HIT:    1672811 MISS:    2067477 MSHR_MERGE:          0
cpu0->LLC LOAD         ACCESS:     507929 HIT:          5 MISS:     507924 MSHR_MERGE:          0
cpu0->LLC RFO          ACCESS:    1598407 HIT:      74710 MISS:    1523697 MSHR_MERGE:          0
cpu0->LLC PREFETCH     ACCESS:          0 HIT:          0 MISS:          0 MSHR_MERGE:          0
cpu0->LLC WRITE        ACCESS:    1598199 HIT:    1598096 MISS:        103 MSHR_MERGE:          0
cpu0->LLC TRANSLATION  ACCESS:      35753 HIT:          0 MISS:      35753 MSHR_MERGE:          0
cpu0->LLC PREFETCH REQUESTED:          0 ISSUED:          0 USEFUL:          0 USELESS:          0
cpu0->LLC AVERAGE MISS LATENCY: 467.6 cycles

DRAM Statistics

Channel 0 RQ ROW_BUFFER_HIT:     102374
  ROW_BUFFER_MISS:    1965000
  AVG DBUS CONGESTED CYCLE: 7.128
Channel 0 WQ ROW_BUFFER_HIT:     248106
  ROW_BUFFER_MISS:    1275465
  FULL:          0
Channel 0 REFRESHES ISSUED:       8377
