[VMEM] WARNING: physical memory size is smaller than virtual memory size.

*** ChampSim Multicore Out-of-Order Simulator ***
Warmup Instructions: 10000000
Simulation Instructions: 50000000
Number of CPUs: 1
Page size: 4096

Off-chip DRAM Size: 16 GiB Channels: 1 Width: 64-bit Data Rate: 3205 MT/s
Heartbeat CPU 0 instructions: 10000002 cycles: 6368233 heartbeat IPC: 1.57 cumulative IPC: 1.57 (Simulation time: 00 hr 00 min 46 sec)
Warmup finished CPU 0 instructions: 10000002 cycles: 6368233 cumulative IPC: 1.57 (Simulation time: 00 hr 00 min 46 sec)
Warmup complete CPU 0 instructions: 10000002 cycles: 6368233 cumulative IPC: 1.57 (Simulation time: 00 hr 00 min 46 sec)
Heartbeat CPU 0 instructions: 20000002 cycles: 45250611 heartbeat IPC: 0.2572 cumulative IPC: 0.2572 (Simulation time: 00 hr 03 min 02 sec)
Heartbeat CPU 0 instructions: 30000004 cycles: 81889254 heartbeat IPC: 0.2729 cumulative IPC: 0.2648 (Simulation time: 00 hr 05 min 11 sec)
Heartbeat CPU 0 instructions: 40000008 cycles: 119451164 heartbeat IPC: 0.2662 cumulative IPC: 0.2653 (Simulation time: 00 hr 07 min 25 sec)
Heartbeat CPU 0 instructions: 50000008 cycles: 156199201 heartbeat IPC: 0.2721 cumulative IPC: 0.267 (Simulation time: 00 hr 09 min 34 sec)
Simulation finished CPU 0 instructions: 50000004 cycles: 184750072 cumulative IPC: 0.2706 (Simulation time: 00 hr 11 min 39 sec)
Simulation complete CPU 0 instructions: 50000004 cycles: 184750072 cumulative IPC: 0.2706 (Simulation time: 00 hr 11 min 39 sec)

ChampSim completed all CPUs

=== Simulation ===
CPU 0 runs traces/620.omnetpp_s-141B.champsimtrace.xz

Region of Interest Statistics

CPU 0 cumulative IPC: 0.2706 instructions: 50000004 cycles: 184750072
CPU 0 Branch Prediction Accuracy: 92.8% MPKI: 15.15 Average ROB Occupancy at Mispredict: 40.69
Branch type MPKI
BRANCH_DIRECT_JUMP: 0.8368
BRANCH_INDIRECT: 0.3548
BRANCH_CONDITIONAL: 12.65
BRANCH_DIRECT_CALL: 0.00142
BRANCH_INDIRECT_CALL: 0.8572
BRANCH_RETURN: 0.4452

cpu0->cpu0_STLB TOTAL        ACCESS:    1112053 HIT:     867223 MISS:     244830 MSHR_MERGE:          0
cpu0->cpu0_STLB LOAD         ACCESS:    1112053 HIT:     867223 MISS:     244830 MSHR_MERGE:          0
cpu0->cpu0_STLB RFO          ACCESS:          0 HIT:          0 MISS:          0 MSHR_MERGE:          0
cpu0->cpu0_STLB PREFETCH     ACCESS:          0 HIT:          0 MISS:          0 MSHR_MERGE:          0
cpu0->cpu0_STLB WRITE        ACCESS:          0 HIT:          0 MISS:          0 MSHR_MERGE:          0
cpu0->cpu0_STLB TRANSLATION  ACCESS:          0 HIT:          0 MISS:          0 MSHR_MERGE:          0
cpu0->cpu0_STLB PREFETCH REQUESTED:          0 ISSUED:          0 USEFUL:          0 USELESS:          0
cpu0->cpu0_STLB AVERAGE MISS LATENCY: 326.2 cycles
cpu0->cpu0_L2C TOTAL        ACCESS:    2041331 HIT:     889546 MISS:    1151785 MSHR_MERGE:          0
cpu0->cpu0_L2C LOAD         ACCESS:     900914 HIT:     258453 MISS:     642461 MSHR_MERGE:          0
cpu0->cpu0_L2C RFO          ACCESS:     118402 HIT:      24060 MISS:      94342 MSHR_MERGE:          0
cpu0->cpu0_L2C PREFETCH     ACCESS:          0 HIT:          0 MISS:          0 MSHR_MERGE:          0
cpu0->cpu0_L2C WRITE        ACCESS:     478355 HIT:     477112 MISS:       1243 MSHR_MERGE:          0
cpu0->cpu0_L2C TRANSLATION  ACCESS:     543660 HIT:     129921 MISS:     413739 MSHR_MERGE:          0
cpu0->cpu0_L2C PREFETCH REQUESTED:          0 ISSUED:          0 USEFUL:          0 USELESS:          0
cpu0->cpu0_L2C AVERAGE MISS LATENCY: 155.6 cycles
cpu0->cpu0_L1I TOTAL        ACCESS:    6701276 HIT:    6665201 MISS:      36075 MSHR_MERGE:       8592
cpu0->cpu0_L1I LOAD         ACCESS:    6701276 HIT:    6665201 MISS:      36075 MSHR_MERGE:       8592
cpu0->cpu0_L1I RFO          ACCESS:          0 HIT:          0 MISS:          0 MSHR_MERGE:          0
cpu0->cpu0_L1I PREFETCH     ACCESS:          0 HIT:          0 MISS:          0 MSHR_MERGE:          0
cpu0->cpu0_L1I WRITE        ACCESS:          0 HIT:          0 MISS:          0 MSHR_MERGE:          0
cpu0->cpu0_L1I TRANSLATION  ACCESS:          0 HIT:          0 MISS:          0 MSHR_MERGE:          0
cpu0->cpu0_L1I PREFETCH REQUESTED:          0 ISSUED:          0 USEFUL:          0 USELESS:          0
cpu0->cpu0_L1I AVERAGE MISS LATENCY: 23.16 cycles
cpu0->cpu0_L1D TOTAL        ACCESS:   20534938 HIT:   18493914 MISS:    2041024 MSHR_MERGE:     505530
cpu0->cpu0_L1D LOAD         ACCESS:   10878794 HIT:    9755085 MISS:    1123709 MSHR_MERGE:     250277
cpu0->cpu0_L1D RFO          ACCESS:          0 HIT:          0 MISS:          0 MSHR_MERGE:          0
cpu0->cpu0_L1D PREFETCH     ACCESS:          0 HIT:          0 MISS:          0 MSHR_MERGE:          0
cpu0->cpu0_L1D WRITE        ACCESS:    9066747 HIT:    8694492 MISS:     372255 MSHR_MERGE:     253853
cpu0->cpu0_L1D TRANSLATION  ACCESS:     589397 HIT:      44337 MISS:     545060 MSHR_MERGE:       1400
cpu0->cpu0_L1D PREFETCH REQUESTED:          0 ISSUED:          0 USEFUL:          0 USELESS:          0
cpu0->cpu0_L1D AVERAGE MISS LATENCY: 125.2 cycles
cpu0->cpu0_ITLB TOTAL        ACCESS:    5914557 HIT:    5761902 MISS:     152655 MSHR_MERGE:      74187
cpu0->cpu0_ITLB LOAD         ACCESS:    5914557 HIT:    5761902 MISS:     152655 MSHR_MERGE:      74187
cpu0->cpu0_ITLB RFO          ACCESS:          0 HIT:          0 MISS:          0 MSHR_MERGE:          0
cpu0->cpu0_ITLB PREFETCH     ACCESS:          0 HIT:          0 MISS:          0 MSHR_MERGE:          0
cpu0->cpu0_ITLB WRITE        ACCESS:          0 HIT:          0 MISS:          0 MSHR_MERGE:          0
cpu0->cpu0_ITLB TRANSLATION  ACCESS:          0 HIT:          0 MISS:          0 MSHR_MERGE:          0
cpu0->cpu0_ITLB PREFETCH REQUESTED:          0 ISSUED:          0 USEFUL:          0 USELESS:          0
cpu0->cpu0_ITLB AVERAGE MISS LATENCY: 7.766 cycles
cpu0->cpu0_DTLB TOTAL        ACCESS:   18974128 HIT:   17761107 MISS:    1213021 MSHR_MERGE:     179436
cpu0->cpu0_DTLB LOAD         ACCESS:   18974128 HIT:   17761107 MISS:    1213021 MSHR_MERGE:     179436
cpu0->cpu0_DTLB RFO          ACCESS:          0 HIT:          0 MISS:          0 MSHR_MERGE:          0
cpu0->cpu0_DTLB PREFETCH     ACCESS:          0 HIT:          0 MISS:          0 MSHR_MERGE:          0
cpu0->cpu0_DTLB WRITE        ACCESS:          0 HIT:          0 MISS:          0 MSHR_MERGE:          0
cpu0->cpu0_DTLB TRANSLATION  ACCESS:          0 HIT:          0 MISS:          0 MSHR_MERGE:          0
cpu0->cpu0_DTLB PREFETCH REQUESTED:          0 ISSUED:          0 USEFUL:          0 USELESS:          0
cpu0->cpu0_DTLB AVERAGE MISS LATENCY: 82.29 cycles
cpu0->LLC TOTAL        ACCESS:    1513897 HIT:     665156 MISS:     848741 MSHR_MERGE:          0
cpu0->LLC LOAD         ACCESS:     642461 HIT:     144680 MISS:     497781 MSHR_MERGE:          0
cpu0->LLC RFO          ACCESS:      94342 HIT:      33893 MISS:      60449 MSHR_MERGE:          0
cpu0->LLC PREFETCH     ACCESS:          0 HIT:          0 MISS:          0 MSHR_MERGE:          0
cpu0->LLC WRITE        ACCESS:     363355 HIT:     361762 MISS:       1593 MSHR_MERGE:          0
cpu0->LLC TRANSLATION  ACCESS:     413739 HIT:     124821 MISS:     288918 MSHR_MERGE:          0
cpu0->LLC PREFETCH REQUESTED:          0 ISSUED:          0 USEFUL:          0 USELESS:          0
cpu0->LLC AVERAGE MISS LATENCY: 189.9 cycles

DRAM Statistics

Channel 0 RQ ROW_BUFFER_HIT:       3047
  ROW_BUFFER_MISS:     844081
  AVG DBUS CONGESTED CYCLE: 19.76
Channel 0 WQ ROW_BUFFER_HIT:      95123
  ROW_BUFFER_MISS:     170618
  FULL:          0
Channel 0 REFRESHES ISSUED:      15396
