[VMEM] WARNING: physical memory size is smaller than virtual memory size.

*** ChampSim Multicore Out-of-Order Simulator ***
Warmup Instructions: 10000000
Simulation Instructions: 50000000
Number of CPUs: 1
Page size: 4096

Off-chip DRAM Size: 16 GiB Channels: 1 Width: 64-bit Data Rate: 3205 MT/s
Heartbeat CPU 0 instructions: 10000002 cycles: 2777584 heartbeat IPC: 3.6 cumulative IPC: 3.6 (Simulation time: 00 hr 00 min 21 sec)
Warmup finished CPU 0 instructions: 10000002 cycles: 2777584 cumulative IPC: 3.6 (Simulation time: 00 hr 00 min 21 sec)
Warmup complete CPU 0 instructions: 10000002 cycles: 2777584 cumulative IPC: 3.6 (Simulation time: 00 hr 00 min 21 sec)
Heartbeat CPU 0 instructions: 20000005 cycles: 12050175 heartbeat IPC: 1.078 cumulative IPC: 1.078 (Simulation time: 00 hr 01 min 16 sec)
Heartbeat CPU 0 instructions: 30000007 cycles: 19311344 heartbeat IPC: 1.377 cumulative IPC: 1.21 (Simulation time: 00 hr 02 min 01 sec)
Heartbeat CPU 0 instructions: 40000010 cycles: 28691145 heartbeat IPC: 1.066 cumulative IPC: 1.158 (Simulation time: 00 hr 02 min 57 sec)
Heartbeat CPU 0 instructions: 50000014 cycles: 35801016 heartbeat IPC: 1.406 cumulative IPC: 1.211 (Simulation time: 00 hr 03 min 42 sec)
Simulation finished CPU 0 instructions: 50000001 cycles: 42379268 cumulative IPC: 1.18 (Simulation time: 00 hr 04 min 37 sec)
Simulation complete CPU 0 instructions: 50000001 cycles: 42379268 cumulative IPC: 1.18 (Simulation time: 00 hr 04 min 37 sec)

ChampSim completed all CPUs

=== Simulation ===
CPU 0 runs traces/654.roms_s-293B.champsimtrace.xz

Region of Interest Statistics

CPU 0 cumulative IPC: 1.18 instructions: 50000001 cycles: 42379268
CPU 0 Branch Prediction Accuracy: 99.8% MPKI: 0.02602 Average ROB Occupancy at Mispredict: 336.2
Branch type MPKI
BRANCH_DIRECT_JUMP: 0
BRANCH_INDIRECT: 0
BRANCH_CONDITIONAL: 0.02602
BRANCH_DIRECT_CALL: 0
BRANCH_INDIRECT_CALL: 0
BRANCH_RETURN: 0

cpu0->cpu0_STLB TOTAL        ACCESS:      14285 HIT:       9245 MISS:       5040 MSHR_MERGE:          0
cpu0->cpu0_STLB LOAD         ACCESS:      14285 HIT:       9245 MISS:       5040 MSHR_MERGE:          0
cpu0->cpu0_STLB RFO          ACCESS:          0 HIT:          0 MISS:          0 MSHR_MERGE:          0
cpu0->cpu0_STLB PREFETCH     ACCESS:          0 HIT:          0 MISS:          0 MSHR_MERGE:          0
cpu0->cpu0_STLB WRITE        ACCESS:          0 HIT:          0 MISS:          0 MSHR_MERGE:          0
cpu0->cpu0_STLB TRANSLATION  ACCESS:          0 HIT:          0 MISS:          0 MSHR_MERGE:          0
cpu0->cpu0_STLB PREFETCH REQUESTED:          0 ISSUED:          0 USEFUL:          0 USELESS:          0
cpu0->cpu0_STLB AVERAGE MISS LATENCY: 888.5 cycles
cpu0->cpu0_L2C TOTAL        ACCESS:     878786 HIT:     357160 MISS:     521626 MSHR_MERGE:          0
cpu0->cpu0_L2C LOAD         ACCESS:     366062 HIT:     103903 MISS:     262159 MSHR_MERGE:          0
cpu0->cpu0_L2C RFO          ACCESS:     250792 HIT:        893 MISS:     249899 MSHR_MERGE:          0
cpu0->cpu0_L2C PREFETCH     ACCESS:          0 HIT:          0 MISS:          0 MSHR_MERGE:          0
cpu0->cpu0_L2C WRITE        ACCESS:     251769 HIT:     251340 MISS:        429 MSHR_MERGE:          0
cpu0->cpu0_L2C TRANSLATION  ACCESS:      10163 HIT:       1024 MISS:       9139 MSHR_MERGE:          0
cpu0->cpu0_L2C PREFETCH REQUESTED:          0 ISSUED:          0 USEFUL:          0 USELESS:          0
cpu0->cpu0_L2C AVERAGE MISS LATENCY: 171 cycles
cpu0->cpu0_L1I TOTAL        ACCESS:   10012415 HIT:   10012415 MISS:          0 MSHR_MERGE:          0
cpu0->cpu0_L1I LOAD         ACCESS:   10012415 HIT:   10012415 MISS:          0 MSHR_MERGE:          0
cpu0->cpu0_L1I RFO          ACCESS:          0 HIT:          0 MISS:          0 MSHR_MERGE:          0
cpu0->cpu0_L1I PREFETCH     ACCESS:          0 HIT:          0 MISS:          0 MSHR_MERGE:          0
cpu0->cpu0_L1I WRITE        ACCESS:          0 HIT:          0 MISS:          0 MSHR_MERGE:          0
cpu0->cpu0_L1I TRANSLATION  ACCESS:          0 HIT:          0 MISS:          0 MSHR_MERGE:          0
cpu0->cpu0_L1I PREFETCH REQUESTED:          0 ISSUED:          0 USEFUL:          0 USELESS:          0
cpu0->cpu0_L1I AVERAGE MISS LATENCY: - cycles
cpu0->cpu0_L1D TOTAL        ACCESS:   15657768 HIT:   14160009 MISS:    1497759 MSHR_MERGE:     870698
cpu0->cpu0_L1D LOAD         ACCESS:   11021130 HIT:   10394868 MISS:     626262 MSHR_MERGE:     260200
cpu0->cpu0_L1D RFO          ACCESS:          0 HIT:          0 MISS:          0 MSHR_MERGE:          0
cpu0->cpu0_L1D PREFETCH     ACCESS:          0 HIT:          0 MISS:          0 MSHR_MERGE:          0
cpu0->cpu0_L1D WRITE        ACCESS:    4623968 HIT:    3762683 MISS:     861285 MSHR_MERGE:     610449
cpu0->cpu0_L1D TRANSLATION  ACCESS:      12670 HIT:       2458 MISS:      10212 MSHR_MERGE:         49
cpu0->cpu0_L1D PREFETCH REQUESTED:          0 ISSUED:          0 USEFUL:          0 USELESS:          0
cpu0->cpu0_L1D AVERAGE MISS LATENCY: 151.1 cycles
cpu0->cpu0_ITLB TOTAL        ACCESS:    7429766 HIT:    7429766 MISS:          0 MSHR_MERGE:          0
cpu0->cpu0_ITLB LOAD         ACCESS:    7429766 HIT:    7429766 MISS:          0 MSHR_MERGE:          0
cpu0->cpu0_ITLB RFO          ACCESS:          0 HIT:          0 MISS:          0 MSHR_MERGE:          0
cpu0->cpu0_ITLB PREFETCH     ACCESS:          0 HIT:          0 MISS:          0 MSHR_MERGE:          0
cpu0->cpu0_ITLB WRITE        ACCESS:          0 HIT:          0 MISS:          0 MSHR_MERGE:          0
cpu0->cpu0_ITLB TRANSLATION  ACCESS:          0 HIT:          0 MISS:          0 MSHR_MERGE:          0
cpu0->cpu0_ITLB PREFETCH REQUESTED:          0 ISSUED:          0 USEFUL:          0 USELESS:          0
cpu0->cpu0_ITLB AVERAGE MISS LATENCY: - cycles
cpu0->cpu0_DTLB TOTAL        ACCESS:   14813242 HIT:   14774861 MISS:      38381 MSHR_MERGE:      24096
cpu0->cpu0_DTLB LOAD         ACCESS:   14813242 HIT:   14774861 MISS:      38381 MSHR_MERGE:      24096
cpu0->cpu0_DTLB RFO          ACCESS:          0 HIT:          0 MISS:          0 MSHR_MERGE:          0
cpu0->cpu0_DTLB PREFETCH     ACCESS:          0 HIT:          0 MISS:          0 MSHR_MERGE:          0
cpu0->cpu0_DTLB WRITE        ACCESS:          0 HIT:          0 MISS:          0 MSHR_MERGE:          0
cpu0->cpu0_DTLB TRANSLATION  ACCESS:          0 HIT:          0 MISS:          0 MSHR_MERGE:          0
cpu0->cpu0_DTLB PREFETCH REQUESTED:          0 ISSUED:          0 USEFUL:          0 USELESS:          0
cpu0->cpu0_DTLB AVERAGE MISS LATENCY: 318.8 cycles
cpu0->LLC TOTAL        ACCESS:     773556 HIT:     431251 MISS:     342305 MSHR_MERGE:          0
cpu0->LLC LOAD         ACCESS:     262159 HIT:     119473 MISS:     142686 MSHR_MERGE:          0
cpu0->LLC RFO          ACCESS:     249899 HIT:      59418 MISS:     190481 MSHR_MERGE:          0
cpu0->LLC PREFETCH     ACCESS:          0 HIT:          0 MISS:          0 MSHR_MERGE:          0
cpu0->LLC WRITE        ACCESS:     252359 HIT:     252252 MISS:        107 MSHR_MERGE:          0
cpu0->LLC TRANSLATION  ACCESS:       9139 HIT:        108 MISS:       9031 MSHR_MERGE:          0
cpu0->LLC PREFETCH REQUESTED:          0 ISSUED:          0 USEFUL:          0 USELESS:          0
cpu0->LLC AVERAGE MISS LATENCY: 236.8 cycles

DRAM Statistics

Channel 0 RQ ROW_BUFFER_HIT:       1740
  ROW_BUFFER_MISS:     339683
  AVG DBUS CONGESTED CYCLE: 6.951
Channel 0 WQ ROW_BUFFER_HIT:      64425
  ROW_BUFFER_MISS:     150344
  FULL:          0
Channel 0 REFRESHES ISSUED:       3532
