[VMEM] WARNING: physical memory size is smaller than virtual memory size.

*** ChampSim Multicore Out-of-Order Simulator ***
Warmup Instructions: 10000000
Simulation Instructions: 50000000
Number of CPUs: 1
Page size: 4096

Off-chip DRAM Size: 16 GiB Channels: 1 Width: 64-bit Data Rate: 3205 MT/s
Heartbeat CPU 0 instructions: 10000001 cycles: 2964290 heartbeat IPC: 3.373 cumulative IPC: 3.373 (Simulation time: 00 hr 00 min 27 sec)
Warmup finished CPU 0 instructions: 10000001 cycles: 2964290 cumulative IPC: 3.373 (Simulation time: 00 hr 00 min 27 sec)
Warmup complete CPU 0 instructions: 10000001 cycles: 2964290 cumulative IPC: 3.373 (Simulation time: 00 hr 00 min 27 sec)
Heartbeat CPU 0 instructions: 20000002 cycles: 9166943 heartbeat IPC: 1.612 cumulative IPC: 1.612 (Simulation time: 00 hr 01 min 07 sec)
Heartbeat CPU 0 instructions: 30000006 cycles: 15316493 heartbeat IPC: 1.626 cumulative IPC: 1.619 (Simulation time: 00 hr 01 min 47 sec)
Heartbeat CPU 0 instructions: 40000007 cycles: 21426422 heartbeat IPC: 1.637 cumulative IPC: 1.625 (Simulation time: 00 hr 02 min 28 sec)
Heartbeat CPU 0 instructions: 50000007 cycles: 27570467 heartbeat IPC: 1.628 cumulative IPC: 1.626 (Simulation time: 00 hr 03 min 08 sec)
Simulation finished CPU 0 instructions: 50000001 cycles: 34114019 cumulative IPC: 1.466 (Simulation time: 00 hr 04 min 01 sec)
Simulation complete CPU 0 instructions: 50000001 cycles: 34114019 cumulative IPC: 1.466 (Simulation time: 00 hr 04 min 01 sec)

ChampSim completed all CPUs

=== Simulation ===
CPU 0 runs traces/607.cactuBSSN_s-2421B.champsimtrace.xz

Region of Interest Statistics

CPU 0 cumulative IPC: 1.466 instructions: 50000001 cycles: 34114019
CPU 0 Branch Prediction Accuracy: 91.79% MPKI: 0.676 Average ROB Occupancy at Mispredict: 303
Branch type MPKI
BRANCH_DIRECT_JUMP: 0.00124
BRANCH_INDIRECT: 0.00164
BRANCH_CONDITIONAL: 0.3451
BRANCH_DIRECT_CALL: 0.01318
BRANCH_INDIRECT_CALL: 6e-05
BRANCH_RETURN: 0.3147

cpu0->cpu0_STLB TOTAL        ACCESS:    2211665 HIT:    2208607 MISS:       3058 MSHR_MERGE:          0
cpu0->cpu0_STLB LOAD         ACCESS:    2211665 HIT:    2208607 MISS:       3058 MSHR_MERGE:          0
cpu0->cpu0_STLB RFO          ACCESS:          0 HIT:          0 MISS:          0 MSHR_MERGE:          0
cpu0->cpu0_STLB PREFETCH     ACCESS:          0 HIT:          0 MISS:          0 MSHR_MERGE:          0
cpu0->cpu0_STLB WRITE        ACCESS:          0 HIT:          0 MISS:          0 MSHR_MERGE:          0
cpu0->cpu0_STLB TRANSLATION  ACCESS:          0 HIT:          0 MISS:          0 MSHR_MERGE:          0
cpu0->cpu0_STLB PREFETCH REQUESTED:          0 ISSUED:          0 USEFUL:          0 USELESS:          0
cpu0->cpu0_STLB AVERAGE MISS LATENCY: 833.3 cycles
cpu0->cpu0_L2C TOTAL        ACCESS:    5468352 HIT:    5132115 MISS:     336237 MSHR_MERGE:          0
cpu0->cpu0_L2C LOAD         ACCESS:    4784471 HIT:    4485879 MISS:     298592 MSHR_MERGE:          0
cpu0->cpu0_L2C RFO          ACCESS:     321700 HIT:     291312 MISS:      30388 MSHR_MERGE:          0
cpu0->cpu0_L2C PREFETCH     ACCESS:          0 HIT:          0 MISS:          0 MSHR_MERGE:          0
cpu0->cpu0_L2C WRITE        ACCESS:     354732 HIT:     354537 MISS:        195 MSHR_MERGE:          0
cpu0->cpu0_L2C TRANSLATION  ACCESS:       7449 HIT:        387 MISS:       7062 MSHR_MERGE:          0
cpu0->cpu0_L2C PREFETCH REQUESTED:          0 ISSUED:          0 USEFUL:          0 USELESS:          0
cpu0->cpu0_L2C AVERAGE MISS LATENCY: 132.4 cycles
cpu0->cpu0_L1I TOTAL        ACCESS:   10856319 HIT:    8697895 MISS:    2158424 MSHR_MERGE:    1068670
cpu0->cpu0_L1I LOAD         ACCESS:   10856319 HIT:    8697895 MISS:    2158424 MSHR_MERGE:    1068670
cpu0->cpu0_L1I RFO          ACCESS:          0 HIT:          0 MISS:          0 MSHR_MERGE:          0
cpu0->cpu0_L1I PREFETCH     ACCESS:          0 HIT:          0 MISS:          0 MSHR_MERGE:          0
cpu0->cpu0_L1I WRITE        ACCESS:          0 HIT:          0 MISS:          0 MSHR_MERGE:          0
cpu0->cpu0_L1I TRANSLATION  ACCESS:          0 HIT:          0 MISS:          0 MSHR_MERGE:          0
cpu0->cpu0_L1I PREFETCH REQUESTED:          0 ISSUED:          0 USEFUL:          0 USELESS:          0
cpu0->cpu0_L1I AVERAGE MISS LATENCY: 7.354 cycles
cpu0->cpu0_L1D TOTAL        ACCESS:   18693458 HIT:   14288348 MISS:    4405110 MSHR_MERGE:     378691
cpu0->cpu0_L1D LOAD         ACCESS:   14394353 HIT:   10353793 MISS:    4040560 MSHR_MERGE:     343330
cpu0->cpu0_L1D RFO          ACCESS:          0 HIT:          0 MISS:          0 MSHR_MERGE:          0
cpu0->cpu0_L1D PREFETCH     ACCESS:          0 HIT:          0 MISS:          0 MSHR_MERGE:          0
cpu0->cpu0_L1D WRITE        ACCESS:    4291462 HIT:    3934422 MISS:     357040 MSHR_MERGE:      35300
cpu0->cpu0_L1D TRANSLATION  ACCESS:       7643 HIT:        133 MISS:       7510 MSHR_MERGE:         61
cpu0->cpu0_L1D PREFETCH REQUESTED:          0 ISSUED:          0 USEFUL:          0 USELESS:          0
cpu0->cpu0_L1D AVERAGE MISS LATENCY: 19.93 cycles
cpu0->cpu0_ITLB TOTAL        ACCESS:    8684133 HIT:    8684002 MISS:        131 MSHR_MERGE:         71
cpu0->cpu0_ITLB LOAD         ACCESS:    8684133 HIT:    8684002 MISS:        131 MSHR_MERGE:         71
cpu0->cpu0_ITLB RFO          ACCESS:          0 HIT:          0 MISS:          0 MSHR_MERGE:          0
cpu0->cpu0_ITLB PREFETCH     ACCESS:          0 HIT:          0 MISS:          0 MSHR_MERGE:          0
cpu0->cpu0_ITLB WRITE        ACCESS:          0 HIT:          0 MISS:          0 MSHR_MERGE:          0
cpu0->cpu0_ITLB TRANSLATION  ACCESS:          0 HIT:          0 MISS:          0 MSHR_MERGE:          0
cpu0->cpu0_ITLB PREFETCH REQUESTED:          0 ISSUED:          0 USEFUL:          0 USELESS:          0
cpu0->cpu0_ITLB AVERAGE MISS LATENCY: 806.1 cycles
cpu0->cpu0_DTLB TOTAL        ACCESS:   17629828 HIT:   15032907 MISS:    2596921 MSHR_MERGE:     385316
cpu0->cpu0_DTLB LOAD         ACCESS:   17629828 HIT:   15032907 MISS:    2596921 MSHR_MERGE:     385316
cpu0->cpu0_DTLB RFO          ACCESS:          0 HIT:          0 MISS:          0 MSHR_MERGE:          0
cpu0->cpu0_DTLB PREFETCH     ACCESS:          0 HIT:          0 MISS:          0 MSHR_MERGE:          0
cpu0->cpu0_DTLB WRITE        ACCESS:          0 HIT:          0 MISS:          0 MSHR_MERGE:          0
cpu0->cpu0_DTLB TRANSLATION  ACCESS:          0 HIT:          0 MISS:          0 MSHR_MERGE:          0
cpu0->cpu0_DTLB PREFETCH REQUESTED:          0 ISSUED:          0 USEFUL:          0 USELESS:          0
cpu0->cpu0_DTLB AVERAGE MISS LATENCY: 6.172 cycles
cpu0->LLC TOTAL        ACCESS:     373415 HIT:     192639 MISS:     180776 MSHR_MERGE:          0
cpu0->LLC LOAD         ACCESS:     298591 HIT:     147585 MISS:     151006 MSHR_MERGE:          0
cpu0->LLC RFO          ACCESS:      30358 HIT:       5682 MISS:      24676 MSHR_MERGE:          0
cpu0->LLC PREFETCH     ACCESS:          0 HIT:          0 MISS:          0 MSHR_MERGE:          0
cpu0->LLC WRITE        ACCESS:      37404 HIT:      37253 MISS:        151 MSHR_MERGE:          0
cpu0->LLC TRANSLATION  ACCESS:       7062 HIT:       2119 MISS:       4943 MSHR_MERGE:          0
cpu0->LLC PREFETCH REQUESTED:          0 ISSUED:          0 USEFUL:          0 USELESS:          0
cpu0->LLC AVERAGE MISS LATENCY: 217.3 cycles

DRAM Statistics

Channel 0 RQ ROW_BUFFER_HIT:        123
  ROW_BUFFER_MISS:     180501
  AVG DBUS CONGESTED CYCLE: 9.273
Channel 0 WQ ROW_BUFFER_HIT:       3907
  ROW_BUFFER_MISS:      29994
  FULL:          0
Channel 0 REFRESHES ISSUED:       2842
