[VMEM] WARNING: physical memory size is smaller than virtual memory size.

*** ChampSim Multicore Out-of-Order Simulator ***
Warmup Instructions: 10000000
Simulation Instructions: 50000000
Number of CPUs: 1
Page size: 4096

Off-chip DRAM Size: 16 GiB Channels: 1 Width: 64-bit Data Rate: 3205 MT/s
Heartbeat CPU 0 instructions: 10000002 cycles: 2542456 heartbeat IPC: 3.933 cumulative IPC: 3.933 (Simulation time: 00 hr 00 min 18 sec)
Warmup finished CPU 0 instructions: 10000002 cycles: 2542456 cumulative IPC: 3.933 (Simulation time: 00 hr 00 min 18 sec)
Warmup complete CPU 0 instructions: 10000002 cycles: 2542456 cumulative IPC: 3.933 (Simulation time: 00 hr 00 min 18 sec)
Heartbeat CPU 0 instructions: 20000002 cycles: 6732689 heartbeat IPC: 2.387 cumulative IPC: 2.387 (Simulation time: 00 hr 00 min 40 sec)
Heartbeat CPU 0 instructions: 30000003 cycles: 10929631 heartbeat IPC: 2.383 cumulative IPC: 2.385 (Simulation time: 00 hr 01 min 03 sec)
Heartbeat CPU 0 instructions: 40000003 cycles: 15133445 heartbeat IPC: 2.379 cumulative IPC: 2.383 (Simulation time: 00 hr 01 min 25 sec)
Heartbeat CPU 0 instructions: 50000004 cycles: 19330942 heartbeat IPC: 2.382 cumulative IPC: 2.383 (Simulation time: 00 hr 01 min 48 sec)
Simulation finished CPU 0 instructions: 50000001 cycles: 20978671 cumulative IPC: 2.383 (Simulation time: 00 hr 02 min 10 sec)
Simulation complete CPU 0 instructions: 50000001 cycles: 20978671 cumulative IPC: 2.383 (Simulation time: 00 hr 02 min 10 sec)

ChampSim completed all CPUs

=== Simulation ===
CPU 0 runs traces/625.x264_s-12B.champsimtrace.xz

Region of Interest Statistics

CPU 0 cumulative IPC: 2.383 instructions: 50000001 cycles: 20978671
CPU 0 Branch Prediction Accuracy: 88.67% MPKI: 4.877 Average ROB Occupancy at Mispredict: 79.77
Branch type MPKI
BRANCH_DIRECT_JUMP: 4e-05
BRANCH_INDIRECT: 2e-05
BRANCH_CONDITIONAL: 4.875
BRANCH_DIRECT_CALL: 0
BRANCH_INDIRECT_CALL: 0.00136
BRANCH_RETURN: 0

cpu0->cpu0_STLB TOTAL        ACCESS:       3219 HIT:       3063 MISS:        156 MSHR_MERGE:          0
cpu0->cpu0_STLB LOAD         ACCESS:       3219 HIT:       3063 MISS:        156 MSHR_MERGE:          0
cpu0->cpu0_STLB RFO          ACCESS:          0 HIT:          0 MISS:          0 MSHR_MERGE:          0
cpu0->cpu0_STLB PREFETCH     ACCESS:          0 HIT:          0 MISS:          0 MSHR_MERGE:          0
cpu0->cpu0_STLB WRITE        ACCESS:          0 HIT:          0 MISS:          0 MSHR_MERGE:          0
cpu0->cpu0_STLB TRANSLATION  ACCESS:          0 HIT:          0 MISS:          0 MSHR_MERGE:          0
cpu0->cpu0_STLB PREFETCH REQUESTED:          0 ISSUED:          0 USEFUL:          0 USELESS:          0
cpu0->cpu0_STLB AVERAGE MISS LATENCY: 735.6 cycles
cpu0->cpu0_L2C TOTAL        ACCESS:      17154 HIT:       4878 MISS:      12276 MSHR_MERGE:          0
cpu0->cpu0_L2C LOAD         ACCESS:      15927 HIT:       4404 MISS:      11523 MSHR_MERGE:          0
cpu0->cpu0_L2C RFO          ACCESS:        475 HIT:          8 MISS:        467 MSHR_MERGE:          0
cpu0->cpu0_L2C PREFETCH     ACCESS:          0 HIT:          0 MISS:          0 MSHR_MERGE:          0
cpu0->cpu0_L2C WRITE        ACCESS:        469 HIT:        461 MISS:          8 MSHR_MERGE:          0
cpu0->cpu0_L2C TRANSLATION  ACCESS:        283 HIT:          5 MISS:        278 MSHR_MERGE:          0
cpu0->cpu0_L2C PREFETCH REQUESTED:          0 ISSUED:          0 USEFUL:          0 USELESS:          0
cpu0->cpu0_L2C AVERAGE MISS LATENCY: 132.3 cycles
cpu0->cpu0_L1I TOTAL        ACCESS:    4314718 HIT:    4314715 MISS:          3 MSHR_MERGE:          1
cpu0->cpu0_L1I LOAD         ACCESS:    4314718 HIT:    4314715 MISS:          3 MSHR_MERGE:          1
cpu0->cpu0_L1I RFO          ACCESS:          0 HIT:          0 MISS:          0 MSHR_MERGE:          0
cpu0->cpu0_L1I PREFETCH     ACCESS:          0 HIT:          0 MISS:          0 MSHR_MERGE:          0
cpu0->cpu0_L1I WRITE        ACCESS:          0 HIT:          0 MISS:          0 MSHR_MERGE:          0
cpu0->cpu0_L1I TRANSLATION  ACCESS:          0 HIT:          0 MISS:          0 MSHR_MERGE:          0
cpu0->cpu0_L1I PREFETCH REQUESTED:          0 ISSUED:          0 USEFUL:          0 USELESS:          0
cpu0->cpu0_L1I AVERAGE MISS LATENCY: 165 cycles
cpu0->cpu0_L1D TOTAL        ACCESS:   10290022 HIT:   10250409 MISS:      39613 MSHR_MERGE:      22930
cpu0->cpu0_L1D LOAD         ACCESS:    7268509 HIT:    7229666 MISS:      38843 MSHR_MERGE:      22918
cpu0->cpu0_L1D RFO          ACCESS:          0 HIT:          0 MISS:          0 MSHR_MERGE:          0
cpu0->cpu0_L1D PREFETCH     ACCESS:          0 HIT:          0 MISS:          0 MSHR_MERGE:          0
cpu0->cpu0_L1D WRITE        ACCESS:    3021201 HIT:    3020714 MISS:        487 MSHR_MERGE:         12
cpu0->cpu0_L1D TRANSLATION  ACCESS:        312 HIT:         29 MISS:        283 MSHR_MERGE:          0
cpu0->cpu0_L1D PREFETCH REQUESTED:          0 ISSUED:          0 USEFUL:          0 USELESS:          0
cpu0->cpu0_L1D AVERAGE MISS LATENCY: 106.1 cycles
cpu0->cpu0_ITLB TOTAL        ACCESS:    3953954 HIT:    3953954 MISS:          0 MSHR_MERGE:          0
cpu0->cpu0_ITLB LOAD         ACCESS:    3953954 HIT:    3953954 MISS:          0 MSHR_MERGE:          0
cpu0->cpu0_ITLB RFO          ACCESS:          0 HIT:          0 MISS:          0 MSHR_MERGE:          0
cpu0->cpu0_ITLB PREFETCH     ACCESS:          0 HIT:          0 MISS:          0 MSHR_MERGE:          0
cpu0->cpu0_ITLB WRITE        ACCESS:          0 HIT:          0 MISS:          0 MSHR_MERGE:          0
cpu0->cpu0_ITLB TRANSLATION  ACCESS:          0 HIT:          0 MISS:          0 MSHR_MERGE:          0
cpu0->cpu0_ITLB PREFETCH REQUESTED:          0 ISSUED:          0 USEFUL:          0 USELESS:          0
cpu0->cpu0_ITLB AVERAGE MISS LATENCY: - cycles
cpu0->cpu0_DTLB TOTAL        ACCESS:    9825800 HIT:    9820238 MISS:       5562 MSHR_MERGE:       2343
cpu0->cpu0_DTLB LOAD         ACCESS:    9825800 HIT:    9820238 MISS:       5562 MSHR_MERGE:       2343
cpu0->cpu0_DTLB RFO          ACCESS:          0 HIT:          0 MISS:          0 MSHR_MERGE:          0
cpu0->cpu0_DTLB PREFETCH     ACCESS:          0 HIT:          0 MISS:          0 MSHR_MERGE:          0
cpu0->cpu0_DTLB WRITE        ACCESS:          0 HIT:          0 MISS:          0 MSHR_MERGE:          0
cpu0->cpu0_DTLB TRANSLATION  ACCESS:          0 HIT:          0 MISS:          0 MSHR_MERGE:          0
cpu0->cpu0_DTLB PREFETCH REQUESTED:          0 ISSUED:          0 USEFUL:          0 USELESS:          0
cpu0->cpu0_DTLB AVERAGE MISS LATENCY: 40.7 cycles
cpu0->LLC TOTAL        ACCESS:      12447 HIT:       3392 MISS:       9055 MSHR_MERGE:          0
cpu0->LLC LOAD         ACCESS:      11523 HIT:       3213 MISS:       8310 MSHR_MERGE:          0
cpu0->LLC RFO          ACCESS:        467 HIT:          0 MISS:        467 MSHR_MERGE:          0
cpu0->LLC PREFETCH     ACCESS:          0 HIT:          0 MISS:          0 MSHR_MERGE:          0
cpu0->LLC WRITE        ACCESS:        179 HIT:        179 MISS:          0 MSHR_MERGE:          0
cpu0->LLC TRANSLATION  ACCESS:        278 HIT:          0 MISS:        278 MSHR_MERGE:          0
cpu0->LLC PREFETCH REQUESTED:          0 ISSUED:          0 USEFUL:          0 USELESS:          0
cpu0->LLC AVERAGE MISS LATENCY: 158 cycles

DRAM Statistics

Channel 0 RQ ROW_BUFFER_HIT:         78
  ROW_BUFFER_MISS:       8977
  AVG DBUS CONGESTED CYCLE: 2.909
Channel 0 WQ ROW_BUFFER_HIT:          0
  ROW_BUFFER_MISS:          0
  FULL:          0
Channel 0 REFRESHES ISSUED:       1749
