[VMEM] WARNING: physical memory size is smaller than virtual memory size.

*** ChampSim Multicore Out-of-Order Simulator ***
Warmup Instructions: 10000000
Simulation Instructions: 50000000
Number of CPUs: 1
Page size: 4096

Off-chip DRAM Size: 16 GiB Channels: 1 Width: 64-bit Data Rate: 3205 MT/s
Heartbeat CPU 0 instructions: 10000003 cycles: 3488151 heartbeat IPC: 2.867 cumulative IPC: 2.867 (Simulation time: 00 hr 00 min 25 sec)
Warmup finished CPU 0 instructions: 10000003 cycles: 3488151 cumulative IPC: 2.867 (Simulation time: 00 hr 00 min 25 sec)
Warmup complete CPU 0 instructions: 10000003 cycles: 3488151 cumulative IPC: 2.867 (Simulation time: 00 hr 00 min 25 sec)
Heartbeat CPU 0 instructions: 20000004 cycles: 45635037 heartbeat IPC: 0.2373 cumulative IPC: 0.2373 (Simulation time: 00 hr 02 min 38 sec)
Heartbeat CPU 0 instructions: 30000004 cycles: 87628072 heartbeat IPC: 0.2381 cumulative IPC: 0.2377 (Simulation time: 00 hr 04 min 51 sec)
Heartbeat CPU 0 instructions: 40000005 cycles: 129671081 heartbeat IPC: 0.2379 cumulative IPC: 0.2378 (Simulation time: 00 hr 07 min 04 sec)
Heartbeat CPU 0 instructions: 50000009 cycles: 171723829 heartbeat IPC: 0.2378 cumulative IPC: 0.2378 (Simulation time: 00 hr 09 min 18 sec)
Simulation finished CPU 0 instructions: 50000004 cycles: 210291402 cumulative IPC: 0.2378 (Simulation time: 00 hr 11 min 31 sec)
Simulation complete CPU 0 instructions: 50000004 cycles: 210291402 cumulative IPC: 0.2378 (Simulation time: 00 hr 11 min 31 sec)

ChampSim completed all CPUs

=== Simulation ===
CPU 0 runs traces/602.gcc_s-1850B.champsimtrace.xz

Region of Interest Statistics

CPU 0 cumulative IPC: 0.2378 instructions: 50000004 cycles: 210291402
CPU 0 Branch Prediction Accuracy: 92.26% MPKI: 19.85 Average ROB Occupancy at Mispredict: 28.66
Branch type MPKI
BRANCH_DIRECT_JUMP: 0.01114
BRANCH_INDIRECT: 0
BRANCH_CONDITIONAL: 19.84
BRANCH_DIRECT_CALL: 0
BRANCH_INDIRECT_CALL: 0
BRANCH_RETURN: 0

cpu0->cpu0_STLB TOTAL        ACCESS:      16343 HIT:       1124 MISS:      15219 MSHR_MERGE:          0
cpu0->cpu0_STLB LOAD         ACCESS:      16343 HIT:       1124 MISS:      15219 MSHR_MERGE:          0
cpu0->cpu0_STLB RFO          ACCESS:          0 HIT:          0 MISS:          0 MSHR_MERGE:          0
cpu0->cpu0_STLB PREFETCH     ACCESS:          0 HIT:          0 MISS:          0 MSHR_MERGE:          0
cpu0->cpu0_STLB WRITE        ACCESS:          0 HIT:          0 MISS:          0 MSHR_MERGE:          0
cpu0->cpu0_STLB TRANSLATION  ACCESS:          0 HIT:          0 MISS:          0 MSHR_MERGE:          0
cpu0->cpu0_STLB PREFETCH REQUESTED:          0 ISSUED:          0 USEFUL:          0 USELESS:          0
cpu0->cpu0_STLB AVERAGE MISS LATENCY: 670.8 cycles
cpu0->cpu0_L2C TOTAL        ACCESS:    1229314 HIT:     321064 MISS:     908250 MSHR_MERGE:          0
cpu0->cpu0_L2C LOAD         ACCESS:    1206978 HIT:     317321 MISS:     889657 MSHR_MERGE:          0
cpu0->cpu0_L2C RFO          ACCESS:        395 HIT:          0 MISS:        395 MSHR_MERGE:          0
cpu0->cpu0_L2C PREFETCH     ACCESS:          0 HIT:          0 MISS:          0 MSHR_MERGE:          0
cpu0->cpu0_L2C WRITE        ACCESS:       3152 HIT:       3152 MISS:          0 MSHR_MERGE:          0
cpu0->cpu0_L2C TRANSLATION  ACCESS:      18789 HIT:        591 MISS:      18198 MSHR_MERGE:          0
cpu0->cpu0_L2C PREFETCH REQUESTED:          0 ISSUED:          0 USEFUL:          0 USELESS:          0
cpu0->cpu0_L2C AVERAGE MISS LATENCY: 161.1 cycles
cpu0->cpu0_L1I TOTAL        ACCESS:        381 HIT:        381 MISS:          0 MSHR_MERGE:          0
cpu0->cpu0_L1I LOAD         ACCESS:        381 HIT:        381 MISS:          0 MSHR_MERGE:          0
cpu0->cpu0_L1I RFO          ACCESS:          0 HIT:          0 MISS:          0 MSHR_MERGE:          0
cpu0->cpu0_L1I PREFETCH     ACCESS:          0 HIT:          0 MISS:          0 MSHR_MERGE:          0
cpu0->cpu0_L1I WRITE        ACCESS:          0 HIT:          0 MISS:          0 MSHR_MERGE:          0
cpu0->cpu0_L1I TRANSLATION  ACCESS:          0 HIT:          0 MISS:          0 MSHR_MERGE:          0
cpu0->cpu0_L1I PREFETCH REQUESTED:          0 ISSUED:          0 USEFUL:          0 USELESS:          0
cpu0->cpu0_L1I AVERAGE MISS LATENCY: - cycles
cpu0->cpu0_L1D TOTAL        ACCESS:   14953530 HIT:   12838378 MISS:    2115152 MSHR_MERGE:     888991
cpu0->cpu0_L1D LOAD         ACCESS:   10607357 HIT:    8511390 MISS:    2095967 MSHR_MERGE:     888990
cpu0->cpu0_L1D RFO          ACCESS:          0 HIT:          0 MISS:          0 MSHR_MERGE:          0
cpu0->cpu0_L1D PREFETCH     ACCESS:          0 HIT:          0 MISS:          0 MSHR_MERGE:          0
cpu0->cpu0_L1D WRITE        ACCESS:    4315581 HIT:    4315185 MISS:        396 MSHR_MERGE:          1
cpu0->cpu0_L1D TRANSLATION  ACCESS:      30592 HIT:      11803 MISS:      18789 MSHR_MERGE:          0
cpu0->cpu0_L1D PREFETCH REQUESTED:          0 ISSUED:          0 USEFUL:          0 USELESS:          0
cpu0->cpu0_L1D AVERAGE MISS LATENCY: 128.1 cycles
cpu0->cpu0_ITLB TOTAL        ACCESS:        288 HIT:        288 MISS:          0 MSHR_MERGE:          0
cpu0->cpu0_ITLB LOAD         ACCESS:        288 HIT:        288 MISS:          0 MSHR_MERGE:          0
cpu0->cpu0_ITLB RFO          ACCESS:          0 HIT:          0 MISS:          0 MSHR_MERGE:          0
cpu0->cpu0_ITLB PREFETCH     ACCESS:          0 HIT:          0 MISS:          0 MSHR_MERGE:          0
cpu0->cpu0_ITLB WRITE        ACCESS:          0 HIT:          0 MISS:          0 MSHR_MERGE:          0
cpu0->cpu0_ITLB TRANSLATION  ACCESS:          0 HIT:          0 MISS:          0 MSHR_MERGE:          0
cpu0->cpu0_ITLB PREFETCH REQUESTED:          0 ISSUED:          0 USEFUL:          0 USELESS:          0
cpu0->cpu0_ITLB AVERAGE MISS LATENCY: - cycles
cpu0->cpu0_DTLB TOTAL        ACCESS:   14535228 HIT:   14504888 MISS:      30340 MSHR_MERGE:      13997
cpu0->cpu0_DTLB LOAD         ACCESS:   14535228 HIT:   14504888 MISS:      30340 MSHR_MERGE:      13997
cpu0->cpu0_DTLB RFO          ACCESS:          0 HIT:          0 MISS:          0 MSHR_MERGE:          0
cpu0->cpu0_DTLB PREFETCH     ACCESS:          0 HIT:          0 MISS:          0 MSHR_MERGE:          0
cpu0->cpu0_DTLB WRITE        ACCESS:          0 HIT:          0 MISS:          0 MSHR_MERGE:          0
cpu0->cpu0_DTLB TRANSLATION  ACCESS:          0 HIT:          0 MISS:          0 MSHR_MERGE:          0
cpu0->cpu0_DTLB PREFETCH REQUESTED:          0 ISSUED:          0 USEFUL:          0 USELESS:          0
cpu0->cpu0_DTLB AVERAGE MISS LATENCY: 630.6 cycles
cpu0->LLC TOTAL        ACCESS:     909510 HIT:       2518 MISS:     906992 MSHR_MERGE:          0
cpu0->LLC LOAD         ACCESS:     889657 HIT:       1172 MISS:     888485 MSHR_MERGE:          0
cpu0->LLC RFO          ACCESS:        395 HIT:          0 MISS:        395 MSHR_MERGE:          0
cpu0->LLC PREFETCH     ACCESS:          0 HIT:          0 MISS:          0 MSHR_MERGE:          0
cpu0->LLC WRITE        ACCESS:       1260 HIT:       1255 MISS:          5 MSHR_MERGE:          0
cpu0->LLC TRANSLATION  ACCESS:      18198 HIT:         91 MISS:      18107 MSHR_MERGE:          0
cpu0->LLC PREFETCH REQUESTED:          0 ISSUED:          0 USEFUL:          0 USELESS:          0
cpu0->LLC AVERAGE MISS LATENCY: 145.4 cycles

DRAM Statistics

Channel 0 RQ ROW_BUFFER_HIT:     206091
  ROW_BUFFER_MISS:     700896
  AVG DBUS CONGESTED CYCLE: 19.92
Channel 0 WQ ROW_BUFFER_HIT:        379
  ROW_BUFFER_MISS:        869
  FULL:          0
Channel 0 REFRESHES ISSUED:      17524
