[VMEM] WARNING: physical memory size is smaller than virtual memory size.

*** ChampSim Multicore Out-of-Order Simulator ***
Warmup Instructions: 10000000
Simulation Instructions: 50000000
Number of CPUs: 1
Page size: 4096

Off-chip DRAM Size: 16 GiB Channels: 1 Width: 64-bit Data Rate: 3205 MT/s
Heartbeat CPU 0 instructions: 10000000 cycles: 2627408 heartbeat IPC: 3.806 cumulative IPC: 3.806 (Simulation time: 00 hr 00 min 21 sec)
Warmup finished CPU 0 instructions: 10000000 cycles: 2627408 cumulative IPC: 3.806 (Simulation time: 00 hr 00 min 21 sec)
Warmup complete CPU 0 instructions: 10000000 cycles: 2627408 cumulative IPC: 3.806 (Simulation time: 00 hr 00 min 21 sec)
Heartbeat CPU 0 instructions: 20000003 cycles: 16661563 heartbeat IPC: 0.7125 cumulative IPC: 0.7125 (Simulation time: 00 hr 01 min 19 sec)
Heartbeat CPU 0 instructions: 30000004 cycles: 26675039 heartbeat IPC: 0.9987 cumulative IPC: 0.8317 (Simulation time: 00 hr 02 min 00 sec)
Heartbeat CPU 0 instructions: 40000004 cycles: 36251196 heartbeat IPC: 1.044 cumulative IPC: 0.8922 (Simulation time: 00 hr 02 min 40 sec)
Heartbeat CPU 0 instructions: 50000007 cycles: 45730946 heartbeat IPC: 1.055 cumulative IPC: 0.928 (Simulation time: 00 hr 03 min 19 sec)
Simulation finished CPU 0 instructions: 50000000 cycles: 52685316 cumulative IPC: 0.949 (Simulation time: 00 hr 03 min 59 sec)
Simulation complete CPU 0 instructions: 50000000 cycles: 52685316 cumulative IPC: 0.949 (Simulation time: 00 hr 03 min 59 sec)

ChampSim completed all CPUs

=== Simulation ===
CPU 0 runs traces/641.leela_s-149B.champsimtrace.xz

Region of Interest Statistics

CPU 0 cumulative IPC: 0.949 instructions: 50000000 cycles: 52685316
CPU 0 Branch Prediction Accuracy: 88.24% MPKI: 19.91 Average ROB Occupancy at Mispredict: 20.22
Branch type MPKI
BRANCH_DIRECT_JUMP: 0.1049
BRANCH_INDIRECT: 0.0134
BRANCH_CONDITIONAL: 19.75
BRANCH_DIRECT_CALL: 0.00596
BRANCH_INDIRECT_CALL: 0.0036
BRANCH_RETURN: 0.0321

cpu0->cpu0_STLB TOTAL        ACCESS:      20371 HIT:      19821 MISS:        550 MSHR_MERGE:          0
cpu0->cpu0_STLB LOAD         ACCESS:      20371 HIT:      19821 MISS:        550 MSHR_MERGE:          0
cpu0->cpu0_STLB RFO          ACCESS:          0 HIT:          0 MISS:          0 MSHR_MERGE:          0
cpu0->cpu0_STLB PREFETCH     ACCESS:          0 HIT:          0 MISS:          0 MSHR_MERGE:          0
cpu0->cpu0_STLB WRITE        ACCESS:          0 HIT:          0 MISS:          0 MSHR_MERGE:          0
cpu0->cpu0_STLB TRANSLATION  ACCESS:          0 HIT:          0 MISS:          0 MSHR_MERGE:          0
cpu0->cpu0_STLB PREFETCH REQUESTED:          0 ISSUED:          0 USEFUL:          0 USELESS:          0
cpu0->cpu0_STLB AVERAGE MISS LATENCY: 740.3 cycles
cpu0->cpu0_L2C TOTAL        ACCESS:     308623 HIT:     212736 MISS:      95887 MSHR_MERGE:          0
cpu0->cpu0_L2C LOAD         ACCESS:     137324 HIT:      79588 MISS:      57736 MSHR_MERGE:          0
cpu0->cpu0_L2C RFO          ACCESS:      66588 HIT:      29349 MISS:      37239 MSHR_MERGE:          0
cpu0->cpu0_L2C PREFETCH     ACCESS:          0 HIT:          0 MISS:          0 MSHR_MERGE:          0
cpu0->cpu0_L2C WRITE        ACCESS:     103818 HIT:     103793 MISS:         25 MSHR_MERGE:          0
cpu0->cpu0_L2C TRANSLATION  ACCESS:        893 HIT:          6 MISS:        887 MSHR_MERGE:          0
cpu0->cpu0_L2C PREFETCH REQUESTED:          0 ISSUED:          0 USEFUL:          0 USELESS:          0
cpu0->cpu0_L2C AVERAGE MISS LATENCY: 66.7 cycles
cpu0->cpu0_L1I TOTAL        ACCESS:    5770443 HIT:    5749931 MISS:      20512 MSHR_MERGE:       8019
cpu0->cpu0_L1I LOAD         ACCESS:    5770443 HIT:    5749931 MISS:      20512 MSHR_MERGE:       8019
cpu0->cpu0_L1I RFO          ACCESS:          0 HIT:          0 MISS:          0 MSHR_MERGE:          0
cpu0->cpu0_L1I PREFETCH     ACCESS:          0 HIT:          0 MISS:          0 MSHR_MERGE:          0
cpu0->cpu0_L1I WRITE        ACCESS:          0 HIT:          0 MISS:          0 MSHR_MERGE:          0
cpu0->cpu0_L1I TRANSLATION  ACCESS:          0 HIT:          0 MISS:          0 MSHR_MERGE:          0
cpu0->cpu0_L1I PREFETCH REQUESTED:          0 ISSUED:          0 USEFUL:          0 USELESS:          0
cpu0->cpu0_L1I AVERAGE MISS LATENCY: 20.48 cycles
cpu0->cpu0_L1D TOTAL        ACCESS:   15800593 HIT:   15340628 MISS:     459965 MSHR_MERGE:     267652
cpu0->cpu0_L1D LOAD         ACCESS:    9191949 HIT:    9008493 MISS:     183456 MSHR_MERGE:      58624
cpu0->cpu0_L1D RFO          ACCESS:          0 HIT:          0 MISS:          0 MSHR_MERGE:          0
cpu0->cpu0_L1D PREFETCH     ACCESS:          0 HIT:          0 MISS:          0 MSHR_MERGE:          0
cpu0->cpu0_L1D WRITE        ACCESS:    6607543 HIT:    6331927 MISS:     275616 MSHR_MERGE:     209028
cpu0->cpu0_L1D TRANSLATION  ACCESS:       1101 HIT:        208 MISS:        893 MSHR_MERGE:          0
cpu0->cpu0_L1D PREFETCH REQUESTED:          0 ISSUED:          0 USEFUL:          0 USELESS:          0
cpu0->cpu0_L1D AVERAGE MISS LATENCY: 40.97 cycles
cpu0->cpu0_ITLB TOTAL        ACCESS:    5165417 HIT:    5164801 MISS:        616 MSHR_MERGE:        330
cpu0->cpu0_ITLB LOAD         ACCESS:    5165417 HIT:    5164801 MISS:        616 MSHR_MERGE:        330
cpu0->cpu0_ITLB RFO          ACCESS:          0 HIT:          0 MISS:          0 MSHR_MERGE:          0
cpu0->cpu0_ITLB PREFETCH     ACCESS:          0 HIT:          0 MISS:          0 MSHR_MERGE:          0
cpu0->cpu0_ITLB WRITE        ACCESS:          0 HIT:          0 MISS:          0 MSHR_MERGE:          0
cpu0->cpu0_ITLB TRANSLATION  ACCESS:          0 HIT:          0 MISS:          0 MSHR_MERGE:          0
cpu0->cpu0_ITLB PREFETCH REQUESTED:          0 ISSUED:          0 USEFUL:          0 USELESS:          0
cpu0->cpu0_ITLB AVERAGE MISS LATENCY: 119.9 cycles
cpu0->cpu0_DTLB TOTAL        ACCESS:   14976931 HIT:   14950958 MISS:      25973 MSHR_MERGE:       5888
cpu0->cpu0_DTLB LOAD         ACCESS:   14976931 HIT:   14950958 MISS:      25973 MSHR_MERGE:       5888
cpu0->cpu0_DTLB RFO          ACCESS:          0 HIT:          0 MISS:          0 MSHR_MERGE:          0
cpu0->cpu0_DTLB PREFETCH     ACCESS:          0 HIT:          0 MISS:          0 MSHR_MERGE:          0
cpu0->cpu0_DTLB WRITE        ACCESS:          0 HIT:          0 MISS:          0 MSHR_MERGE:          0
cpu0->cpu0_DTLB TRANSLATION  ACCESS:          0 HIT:          0 MISS:          0 MSHR_MERGE:          0
cpu0->cpu0_DTLB PREFETCH REQUESTED:          0 ISSUED:          0 USEFUL:          0 USELESS:          0
cpu0->cpu0_DTLB AVERAGE MISS LATENCY: 23.67 cycles
cpu0->LLC TOTAL        ACCESS:     155893 HIT:     127532 MISS:      28361 MSHR_MERGE:          0
cpu0->LLC LOAD         ACCESS:      57736 HIT:      38755 MISS:      18981 MSHR_MERGE:          0
cpu0->LLC RFO          ACCESS:      37239 HIT:      28745 MISS:       8494 MSHR_MERGE:          0
cpu0->LLC PREFETCH     ACCESS:          0 HIT:          0 MISS:          0 MSHR_MERGE:          0
cpu0->LLC WRITE        ACCESS:      60031 HIT:      60028 MISS:          3 MSHR_MERGE:          0
cpu0->LLC TRANSLATION  ACCESS:        887 HIT:          4 MISS:        883 MSHR_MERGE:          0
cpu0->LLC PREFETCH REQUESTED:          0 ISSUED:          0 USEFUL:          0 USELESS:          0
cpu0->LLC AVERAGE MISS LATENCY: 173.8 cycles

DRAM Statistics

Channel 0 RQ ROW_BUFFER_HIT:       2585
  ROW_BUFFER_MISS:      25758
  AVG DBUS CONGESTED CYCLE: 13.99
Channel 0 WQ ROW_BUFFER_HIT:        531
  ROW_BUFFER_MISS:       2245
  FULL:          0
Channel 0 REFRESHES ISSUED:       4391
