[VMEM] WARNING: physical memory size is smaller than virtual memory size.

*** ChampSim Multicore Out-of-Order Simulator ***
Warmup Instructions: 10000000
Simulation Instructions: 50000000
Number of CPUs: 1
Page size: 4096

Off-chip DRAM Size: 16 GiB Channels: 1 Width: 64-bit Data Rate: 3205 MT/s
Heartbeat CPU 0 instructions: 10000001 cycles: 4021967 heartbeat IPC: 2.486 cumulative IPC: 2.486 (Simulation time: 00 hr 00 min 30 sec)
Warmup finished CPU 0 instructions: 10000001 cycles: 4021967 cumulative IPC: 2.486 (Simulation time: 00 hr 00 min 30 sec)
Warmup complete CPU 0 instructions: 10000001 cycles: 4021967 cumulative IPC: 2.486 (Simulation time: 00 hr 00 min 30 sec)
Heartbeat CPU 0 instructions: 20000001 cycles: 45627430 heartbeat IPC: 0.2404 cumulative IPC: 0.2404 (Simulation time: 00 hr 03 min 58 sec)
Heartbeat CPU 0 instructions: 30000002 cycles: 86932185 heartbeat IPC: 0.2421 cumulative IPC: 0.2412 (Simulation time: 00 hr 07 min 26 sec)
Heartbeat CPU 0 instructions: 40000003 cycles: 129393595 heartbeat IPC: 0.2355 cumulative IPC: 0.2393 (Simulation time: 00 hr 10 min 58 sec)
Heartbeat CPU 0 instructions: 50000006 cycles: 170858426 heartbeat IPC: 0.2412 cumulative IPC: 0.2398 (Simulation time: 00 hr 14 min 27 sec)
Simulation finished CPU 0 instructions: 50000002 cycles: 208344003 cumulative IPC: 0.24 (Simulation time: 00 hr 17 min 56 sec)
Simulation complete CPU 0 instructions: 50000002 cycles: 208344003 cumulative IPC: 0.24 (Simulation time: 00 hr 17 min 56 sec)

ChampSim completed all CPUs

=== Simulation ===
CPU 0 runs traces/605.mcf_s-1536B.champsimtrace.xz

Region of Interest Statistics

CPU 0 cumulative IPC: 0.24 instructions: 50000002 cycles: 208344003
CPU 0 Branch Prediction Accuracy: 99.97% MPKI: 0.04406 Average ROB Occupancy at Mispredict: 176.2
Branch type MPKI
BRANCH_DIRECT_JUMP: 0
BRANCH_INDIRECT: 0
BRANCH_CONDITIONAL: 0.04406
BRANCH_DIRECT_CALL: 0
BRANCH_INDIRECT_CALL: 0
BRANCH_RETURN: 0

cpu0->cpu0_STLB TOTAL        ACCESS:    1310366 HIT:     188936 MISS:    1121430 MSHR_MERGE:          0
cpu0->cpu0_STLB LOAD         ACCESS:    1310366 HIT:     188936 MISS:    1121430 MSHR_MERGE:          0
cpu0->cpu0_STLB RFO          ACCESS:          0 HIT:          0 MISS:          0 MSHR_MERGE:          0
cpu0->cpu0_STLB PREFETCH     ACCESS:          0 HIT:          0 MISS:          0 MSHR_MERGE:          0
cpu0->cpu0_STLB WRITE        ACCESS:          0 HIT:          0 MISS:          0 MSHR_MERGE:          0
cpu0->cpu0_STLB TRANSLATION  ACCESS:          0 HIT:          0 MISS:          0 MSHR_MERGE:          0
cpu0->cpu0_STLB PREFETCH REQUESTED:          0 ISSUED:          0 USEFUL:          0 USELESS:          0
cpu0->cpu0_STLB AVERAGE MISS LATENCY: 84.57 cycles
cpu0->cpu0_L2C TOTAL        ACCESS:    5935975 HIT:    2516679 MISS:    3419296 MSHR_MERGE:          0
cpu0->cpu0_L2C LOAD         ACCESS:    2443108 HIT:     908594 MISS:    1534514 MSHR_MERGE:          0
cpu0->cpu0_L2C RFO          ACCESS:     143243 HIT:      34771 MISS:     108472 MSHR_MERGE:          0
cpu0->cpu0_L2C PREFETCH     ACCESS:          0 HIT:          0 MISS:          0 MSHR_MERGE:          0
cpu0->cpu0_L2C WRITE        ACCESS:    1113258 HIT:    1113235 MISS:         23 MSHR_MERGE:          0
cpu0->cpu0_L2C TRANSLATION  ACCESS:    2236366 HIT:     460079 MISS:    1776287 MSHR_MERGE:          0
cpu0->cpu0_L2C PREFETCH REQUESTED:          0 ISSUED:          0 USEFUL:          0 USELESS:          0
cpu0->cpu0_L2C AVERAGE MISS LATENCY: 107.1 cycles
cpu0->cpu0_L1I TOTAL        ACCESS:   11109378 HIT:   11109378 MISS:          0 MSHR_MERGE:          0
cpu0->cpu0_L1I LOAD         ACCESS:   11109378 HIT:   11109378 MISS:          0 MSHR_MERGE:          0
cpu0->cpu0_L1I RFO          ACCESS:          0 HIT:          0 MISS:          0 MSHR_MERGE:          0
cpu0->cpu0_L1I PREFETCH     ACCESS:          0 HIT:          0 MISS:          0 MSHR_MERGE:          0
cpu0->cpu0_L1I WRITE        ACCESS:          0 HIT:          0 MISS:          0 MSHR_MERGE:          0
cpu0->cpu0_L1I TRANSLATION  ACCESS:          0 HIT:          0 MISS:          0 MSHR_MERGE:          0
cpu0->cpu0_L1I PREFETCH REQUESTED:          0 ISSUED:          0 USEFUL:          0 USELESS:          0
cpu0->cpu0_L1I AVERAGE MISS LATENCY: - cycles
cpu0->cpu0_L1D TOTAL        ACCESS:   14592888 HIT:    8096444 MISS:    6496444 MSHR_MERGE:    1673697
cpu0->cpu0_L1D LOAD         ACCESS:    9963413 HIT:    5867160 MISS:    4096253 MSHR_MERGE:    1653145
cpu0->cpu0_L1D RFO          ACCESS:          0 HIT:          0 MISS:          0 MSHR_MERGE:          0
cpu0->cpu0_L1D PREFETCH     ACCESS:          0 HIT:          0 MISS:          0 MSHR_MERGE:          0
cpu0->cpu0_L1D WRITE        ACCESS:    2217254 HIT:    2073909 MISS:     143345 MSHR_MERGE:         73
cpu0->cpu0_L1D TRANSLATION  ACCESS:    2412221 HIT:     155375 MISS:    2256846 MSHR_MERGE:      20479
cpu0->cpu0_L1D PREFETCH REQUESTED:          0 ISSUED:          0 USEFUL:          0 USELESS:          0
cpu0->cpu0_L1D AVERAGE MISS LATENCY: 84.75 cycles
cpu0->cpu0_ITLB TOTAL        ACCESS:    9954362 HIT:    9954362 MISS:          0 MSHR_MERGE:          0
cpu0->cpu0_ITLB LOAD         ACCESS:    9954362 HIT:    9954362 MISS:          0 MSHR_MERGE:          0
cpu0->cpu0_ITLB RFO          ACCESS:          0 HIT:          0 MISS:          0 MSHR_MERGE:          0
cpu0->cpu0_ITLB PREFETCH     ACCESS:          0 HIT:          0 MISS:          0 MSHR_MERGE:          0
cpu0->cpu0_ITLB WRITE        ACCESS:          0 HIT:          0 MISS:          0 MSHR_MERGE:          0
cpu0->cpu0_ITLB TRANSLATION  ACCESS:          0 HIT:          0 MISS:          0 MSHR_MERGE:          0
cpu0->cpu0_ITLB PREFETCH REQUESTED:          0 ISSUED:          0 USEFUL:          0 USELESS:          0
cpu0->cpu0_ITLB AVERAGE MISS LATENCY: - cycles
cpu0->cpu0_DTLB TOTAL        ACCESS:   12086569 HIT:    8795212 MISS:    3291357 MSHR_MERGE:    1980991
cpu0->cpu0_DTLB LOAD         ACCESS:   12086569 HIT:    8795212 MISS:    3291357 MSHR_MERGE:    1980991
cpu0->cpu0_DTLB RFO          ACCESS:          0 HIT:          0 MISS:          0 MSHR_MERGE:          0
cpu0->cpu0_DTLB PREFETCH     ACCESS:          0 HIT:          0 MISS:          0 MSHR_MERGE:          0
cpu0->cpu0_DTLB WRITE        ACCESS:          0 HIT:          0 MISS:          0 MSHR_MERGE:          0
cpu0->cpu0_DTLB TRANSLATION  ACCESS:          0 HIT:          0 MISS:          0 MSHR_MERGE:          0
cpu0->cpu0_DTLB PREFETCH REQUESTED:          0 ISSUED:          0 USEFUL:          0 USELESS:          0
cpu0->cpu0_DTLB AVERAGE MISS LATENCY: 78.23 cycles
cpu0->LLC TOTAL        ACCESS:    4528216 HIT:    3153782 MISS:    1374434 MSHR_MERGE:          0
cpu0->LLC LOAD         ACCESS:    1534514 HIT:     258143 MISS:    1276371 MSHR_MERGE:          0
cpu0->LLC RFO          ACCESS:     108472 HIT:     108456 MISS:         16 MSHR_MERGE:          0
cpu0->LLC PREFETCH     ACCESS:          0 HIT:          0 MISS:          0 MSHR_MERGE:          0
cpu0->LLC WRITE        ACCESS:    1108943 HIT:    1108061 MISS:        882 MSHR_MERGE:          0
cpu0->LLC TRANSLATION  ACCESS:    1776287 HIT:    1679122 MISS:      97165 MSHR_MERGE:          0
cpu0->LLC PREFETCH REQUESTED:          0 ISSUED:          0 USEFUL:          0 USELESS:          0
cpu0->LLC AVERAGE MISS LATENCY: 228.1 cycles

DRAM Statistics

Channel 0 RQ ROW_BUFFER_HIT:        404
  ROW_BUFFER_MISS:    1373148
  AVG DBUS CONGESTED CYCLE: 5.82
Channel 0 WQ ROW_BUFFER_HIT:     362477
  ROW_BUFFER_MISS:     745717
  FULL:          0
Channel 0 REFRESHES ISSUED:      17362
