[VMEM] WARNING: physical memory size is smaller than virtual memory size.

*** ChampSim Multicore Out-of-Order Simulator ***
Warmup Instructions: 10000000
Simulation Instructions: 50000000
Number of CPUs: 1
Page size: 4096

Off-chip DRAM Size: 16 GiB Channels: 1 Width: 64-bit Data Rate: 3205 MT/s
Heartbeat CPU 0 instructions: 10000000 cycles: 3566906 heartbeat IPC: 2.804 cumulative IPC: 2.804 (Simulation time: 00 hr 00 min 27 sec)
Warmup finished CPU 0 instructions: 10000000 cycles: 3566906 cumulative IPC: 2.804 (Simulation time: 00 hr 00 min 27 sec)
Warmup complete CPU 0 instructions: 10000000 cycles: 3566906 cumulative IPC: 2.804 (Simulation time: 00 hr 00 min 27 sec)
Heartbeat CPU 0 instructions: 20000004 cycles: 25257472 heartbeat IPC: 0.461 cumulative IPC: 0.461 (Simulation time: 00 hr 02 min 33 sec)
Heartbeat CPU 0 instructions: 30000008 cycles: 46506817 heartbeat IPC: 0.4706 cumulative IPC: 0.4658 (Simulation time: 00 hr 04 min 36 sec)
Heartbeat CPU 0 instructions: 40000010 cycles: 66903221 heartbeat IPC: 0.4903 cumulative IPC: 0.4737 (Simulation time: 00 hr 06 min 34 sec)
Heartbeat CPU 0 instructions: 50000010 cycles: 86584426 heartbeat IPC: 0.5081 cumulative IPC: 0.4818 (Simulation time: 00 hr 08 min 28 sec)
Simulation finished CPU 0 instructions: 50000000 cycles: 101854648 cumulative IPC: 0.4909 (Simulation time: 00 hr 10 min 17 sec)
Simulation complete CPU 0 instructions: 50000000 cycles: 101854648 cumulative IPC: 0.4909 (Simulation time: 00 hr 10 min 17 sec)

ChampSim completed all CPUs

=== Simulation ===
CPU 0 runs traces/619.lbm_s-2676B.champsimtrace.xz

Region of Interest Statistics

CPU 0 cumulative IPC: 0.4909 instructions: 50000000 cycles: 101854648
CPU 0 Branch Prediction Accuracy: 95.94% MPKI: 0.6505 Average ROB Occupancy at Mispredict: 211.6
Branch type MPKI
BRANCH_DIRECT_JUMP: 0
BRANCH_INDIRECT: 0
BRANCH_CONDITIONAL: 0.6505
BRANCH_DIRECT_CALL: 0
BRANCH_INDIRECT_CALL: 0
BRANCH_RETURN: 0

cpu0->cpu0_STLB TOTAL        ACCESS:      58518 HIT:      26765 MISS:      31753 MSHR_MERGE:          0
cpu0->cpu0_STLB LOAD         ACCESS:      58518 HIT:      26765 MISS:      31753 MSHR_MERGE:          0
cpu0->cpu0_STLB RFO          ACCESS:          0 HIT:          0 MISS:          0 MSHR_MERGE:          0
cpu0->cpu0_STLB PREFETCH     ACCESS:          0 HIT:          0 MISS:          0 MSHR_MERGE:          0
cpu0->cpu0_STLB WRITE        ACCESS:          0 HIT:          0 MISS:          0 MSHR_MERGE:          0
cpu0->cpu0_STLB TRANSLATION  ACCESS:          0 HIT:          0 MISS:          0 MSHR_MERGE:          0
cpu0->cpu0_STLB PREFETCH REQUESTED:          0 ISSUED:          0 USEFUL:          0 USELESS:          0
cpu0->cpu0_STLB AVERAGE MISS LATENCY: 872.6 cycles
cpu0->cpu0_L2C TOTAL        ACCESS:    6272813 HIT:    1744569 MISS:    4528244 MSHR_MERGE:          0
cpu0->cpu0_L2C LOAD         ACCESS:     507946 HIT:          7 MISS:     507939 MSHR_MERGE:          0
cpu0->cpu0_L2C RFO          ACCESS:    2864518 HIT:     538988 MISS:    2325530 MSHR_MERGE:          0
cpu0->cpu0_L2C PREFETCH     ACCESS:          0 HIT:          0 MISS:          0 MSHR_MERGE:          0
cpu0->cpu0_L2C WRITE        ACCESS:    2864596 HIT:    1205574 MISS:    1659022 MSHR_MERGE:          0
cpu0->cpu0_L2C TRANSLATION  ACCESS:      35753 HIT:          0 MISS:      35753 MSHR_MERGE:          0
cpu0->cpu0_L2C PREFETCH REQUESTED:          0 ISSUED:          0 USEFUL:          0 USELESS:          0
cpu0->cpu0_L2C AVERAGE MISS LATENCY: 224 cycles
cpu0->cpu0_L1I TOTAL        ACCESS:    8015156 HIT:    8015156 MISS:          0 MSHR_MERGE:          0
cpu0->cpu0_L1I LOAD         ACCESS:    8015156 HIT:    8015156 MISS:          0 MSHR_MERGE:          0
cpu0->cpu0_L1I RFO          ACCESS:          0 HIT:          0 MISS:          0 MSHR_MERGE:          0
cpu0->cpu0_L1I PREFETCH     ACCESS:          0 HIT:          0 MISS:          0 MSHR_MERGE:          0
cpu0->cpu0_L1I WRITE        ACCESS:          0 HIT:          0 MISS:          0 MSHR_MERGE:          0
cpu0->cpu0_L1I TRANSLATION  ACCESS:          0 HIT:          0 MISS:          0 MSHR_MERGE:          0
cpu0->cpu0_L1I PREFETCH REQUESTED:          0 ISSUED:          0 USEFUL:          0 USELESS:          0
cpu0->cpu0_L1I AVERAGE MISS LATENCY: - cycles
cpu0->cpu0_L1D TOTAL        ACCESS:   11904978 HIT:    7675479 MISS:    4229499 MSHR_MERGE:     821209
cpu0->cpu0_L1D LOAD         ACCESS:    3123442 HIT:    1923580 MISS:    1199862 MSHR_MERGE:     691916
cpu0->cpu0_L1D RFO          ACCESS:          0 HIT:          0 MISS:          0 MSHR_MERGE:          0
cpu0->cpu0_L1D PREFETCH     ACCESS:          0 HIT:          0 MISS:          0 MSHR_MERGE:          0
cpu0->cpu0_L1D WRITE        ACCESS:    8717998 HIT:    5724114 MISS:    2993884 MSHR_MERGE:     129293
cpu0->cpu0_L1D TRANSLATION  ACCESS:      63538 HIT:      27785 MISS:      35753 MSHR_MERGE:          0
cpu0->cpu0_L1D PREFETCH REQUESTED:          0 ISSUED:          0 USEFUL:          0 USELESS:          0
cpu0->cpu0_L1D AVERAGE MISS LATENCY: 305.2 cycles
cpu0->cpu0_ITLB TOTAL        ACCESS:    5967888 HIT:    5967888 MISS:          0 MSHR_MERGE:          0
cpu0->cpu0_ITLB LOAD         ACCESS:    5967888 HIT:    5967888 MISS:          0 MSHR_MERGE:          0
cpu0->cpu0_ITLB RFO          ACCESS:          0 HIT:          0 MISS:          0 MSHR_MERGE:          0
cpu0->cpu0_ITLB PREFETCH     ACCESS:          0 HIT:          0 MISS:          0 MSHR_MERGE:          0
cpu0->cpu0_ITLB WRITE        ACCESS:          0 HIT:          0 MISS:          0 MSHR_MERGE:          0
cpu0->cpu0_ITLB TRANSLATION  ACCESS:          0 HIT:          0 MISS:          0 MSHR_MERGE:          0
cpu0->cpu0_ITLB PREFETCH REQUESTED:          0 ISSUED:          0 USEFUL:          0 USELESS:          0
cpu0->cpu0_ITLB AVERAGE MISS LATENCY: - cycles
cpu0->cpu0_DTLB TOTAL        ACCESS:   11128830 HIT:   10964037 MISS:     164793 MSHR_MERGE:     106275
cpu0->cpu0_DTLB LOAD         ACCESS:   11128830 HIT:   10964037 MISS:     164793 MSHR_MERGE:     106275
cpu0->cpu0_DTLB RFO          ACCESS:          0 HIT:          0 MISS:          0 MSHR_MERGE:          0
cpu0->cpu0_DTLB PREFETCH     ACCESS:          0 HIT:          0 MISS:          0 MSHR_MERGE:          0
cpu0->cpu0_DTLB WRITE        ACCESS:          0 HIT:          0 MISS:          0 MSHR_MERGE:          0
cpu0->cpu0_DTLB TRANSLATION  ACCESS:          0 HIT:          0 MISS:          0 MSHR_MERGE:          0
cpu0->cpu0_DTLB PREFETCH REQUESTED:          0 ISSUED:          0 USEFUL:          0 USELESS:          0
cpu0->cpu0_DTLB AVERAGE MISS LATENCY: 479 cycles
cpu0->LLC TOTAL        ACCESS:    5194907 HIT:    2953759 MISS:    2241148 MSHR_MERGE:          0
cpu0->LLC LOAD         ACCESS:     507939 HIT:         14 MISS:     507925 MSHR_MERGE:          0
cpu0->LLC RFO          ACCESS:    2325529 HIT:     801832 MISS:    1523697 MSHR_MERGE:          0
cpu0->LLC PREFETCH     ACCESS:          0 HIT:          0 MISS:          0 MSHR_MERGE:          0
cpu0->LLC WRITE        ACCESS:    2325686 HIT:    2151913 MISS:     173773 MSHR_MERGE:          0
cpu0->LLC TRANSLATION  ACCESS:      35753 HIT:          0 MISS:      35753 MSHR_MERGE:          0
cpu0->LLC PREFETCH REQUESTED:          0 ISSUED:          0 USEFUL:          0 USELESS:          0
cpu0->LLC AVERAGE MISS LATENCY: 430.1 cycles

DRAM Statistics

Channel 0 RQ ROW_BUFFER_HIT:     104930
  ROW_BUFFER_MISS:    1962445
  AVG DBUS CONGESTED CYCLE: 7.177
Channel 0 WQ ROW_BUFFER_HIT:     247956
  ROW_BUFFER_MISS:    1316381
  FULL:          0
Channel 0 REFRESHES ISSUED:       8488
