[VMEM] WARNING: physical memory size is smaller than virtual memory size.

*** ChampSim Multicore Out-of-Order Simulator ***
Warmup Instructions: 10000000
Simulation Instructions: 50000000
Number of CPUs: 1
Page size: 4096

Off-chip DRAM Size: 16 GiB Channels: 1 Width: 64-bit Data Rate: 3205 MT/s
Heartbeat CPU 0 instructions: 10000001 cycles: 3398597 heartbeat IPC: 2.942 cumulative IPC: 2.942 (Simulation time: 00 hr 00 min 26 sec)
Warmup finished CPU 0 instructions: 10000001 cycles: 3398597 cumulative IPC: 2.942 (Simulation time: 00 hr 00 min 26 sec)
Warmup complete CPU 0 instructions: 10000001 cycles: 3398597 cumulative IPC: 2.942 (Simulation time: 00 hr 00 min 26 sec)
Heartbeat CPU 0 instructions: 20000002 cycles: 12759638 heartbeat IPC: 1.068 cumulative IPC: 1.068 (Simulation time: 00 hr 01 min 08 sec)
Heartbeat CPU 0 instructions: 30000005 cycles: 22028681 heartbeat IPC: 1.079 cumulative IPC: 1.074 (Simulation time: 00 hr 01 min 49 sec)
Heartbeat CPU 0 instructions: 40000005 cycles: 31238782 heartbeat IPC: 1.086 cumulative IPC: 1.078 (Simulation time: 00 hr 02 min 30 sec)
Heartbeat CPU 0 instructions: 50000009 cycles: 40383077 heartbeat IPC: 1.094 cumulative IPC: 1.082 (Simulation time: 00 hr 03 min 11 sec)
Simulation finished CPU 0 instructions: 50000003 cycles: 46358297 cumulative IPC: 1.079 (Simulation time: 00 hr 03 min 53 sec)
Simulation complete CPU 0 instructions: 50000003 cycles: 46358297 cumulative IPC: 1.079 (Simulation time: 00 hr 03 min 53 sec)

ChampSim completed all CPUs

=== Simulation ===
CPU 0 runs traces/631.deepsjeng_s-928B.champsimtrace.xz

Region of Interest Statistics

CPU 0 cumulative IPC: 1.079 instructions: 50000003 cycles: 46358297
CPU 0 Branch Prediction Accuracy: 89.86% MPKI: 15.07 Average ROB Occupancy at Mispredict: 29.12
Branch type MPKI
BRANCH_DIRECT_JUMP: 0.01754
BRANCH_INDIRECT: 0.01102
BRANCH_CONDITIONAL: 14.54
BRANCH_DIRECT_CALL: 0.01738
BRANCH_INDIRECT_CALL: 0
BRANCH_RETURN: 0.4758

cpu0->cpu0_STLB TOTAL        ACCESS:      13767 HIT:       4627 MISS:       9140 MSHR_MERGE:          0
cpu0->cpu0_STLB LOAD         ACCESS:      13767 HIT:       4627 MISS:       9140 MSHR_MERGE:          0
cpu0->cpu0_STLB RFO          ACCESS:          0 HIT:          0 MISS:          0 MSHR_MERGE:          0
cpu0->cpu0_STLB PREFETCH     ACCESS:          0 HIT:          0 MISS:          0 MSHR_MERGE:          0
cpu0->cpu0_STLB WRITE        ACCESS:          0 HIT:          0 MISS:          0 MSHR_MERGE:          0
cpu0->cpu0_STLB TRANSLATION  ACCESS:          0 HIT:          0 MISS:          0 MSHR_MERGE:          0
cpu0->cpu0_STLB PREFETCH REQUESTED:          0 ISSUED:          0 USEFUL:          0 USELESS:          0
cpu0->cpu0_STLB AVERAGE MISS LATENCY: 851.2 cycles
cpu0->cpu0_L2C TOTAL        ACCESS:     144067 HIT:     100699 MISS:      43368 MSHR_MERGE:          0
cpu0->cpu0_L2C LOAD         ACCESS:      75350 HIT:      59755 MISS:      15595 MSHR_MERGE:          0
cpu0->cpu0_L2C RFO          ACCESS:      14742 HIT:      14110 MISS:        632 MSHR_MERGE:          0
cpu0->cpu0_L2C PREFETCH     ACCESS:          0 HIT:          0 MISS:          0 MSHR_MERGE:          0
cpu0->cpu0_L2C WRITE        ACCESS:      27159 HIT:      24223 MISS:       2936 MSHR_MERGE:          0
cpu0->cpu0_L2C TRANSLATION  ACCESS:      26816 HIT:       2611 MISS:      24205 MSHR_MERGE:          0
cpu0->cpu0_L2C PREFETCH REQUESTED:          0 ISSUED:          0 USEFUL:          0 USELESS:          0
cpu0->cpu0_L2C AVERAGE MISS LATENCY: 140.8 cycles
cpu0->cpu0_L1I TOTAL        ACCESS:    5825470 HIT:    5766423 MISS:      59047 MSHR_MERGE:      14090
cpu0->cpu0_L1I LOAD         ACCESS:    5825470 HIT:    5766423 MISS:      59047 MSHR_MERGE:      14090
cpu0->cpu0_L1I RFO          ACCESS:          0 HIT:          0 MISS:          0 MSHR_MERGE:          0
cpu0->cpu0_L1I PREFETCH     ACCESS:          0 HIT:          0 MISS:          0 MSHR_MERGE:          0
cpu0->cpu0_L1I WRITE        ACCESS:          0 HIT:          0 MISS:          0 MSHR_MERGE:          0
cpu0->cpu0_L1I TRANSLATION  ACCESS:          0 HIT:          0 MISS:          0 MSHR_MERGE:          0
cpu0->cpu0_L1I PREFETCH REQUESTED:          0 ISSUED:          0 USEFUL:          0 USELESS:          0
cpu0->cpu0_L1I AVERAGE MISS LATENCY: 7.309 cycles
cpu0->cpu0_L1D TOTAL        ACCESS:   15198756 HIT:   15092717 MISS:     106039 MSHR_MERGE:      34084
cpu0->cpu0_L1D LOAD         ACCESS:    9205471 HIT:    9164884 MISS:      40587 MSHR_MERGE:      10190
cpu0->cpu0_L1D RFO          ACCESS:          0 HIT:          0 MISS:          0 MSHR_MERGE:          0
cpu0->cpu0_L1D PREFETCH     ACCESS:          0 HIT:          0 MISS:          0 MSHR_MERGE:          0
cpu0->cpu0_L1D WRITE        ACCESS:    5965728 HIT:    5927151 MISS:      38577 MSHR_MERGE:      23835
cpu0->cpu0_L1D TRANSLATION  ACCESS:      27557 HIT:        682 MISS:      26875 MSHR_MERGE:         59
cpu0->cpu0_L1D PREFETCH REQUESTED:          0 ISSUED:          0 USEFUL:          0 USELESS:          0
cpu0->cpu0_L1D AVERAGE MISS LATENCY: 93.15 cycles
cpu0->cpu0_ITLB TOTAL        ACCESS:    4950470 HIT:    4950470 MISS:          0 MSHR_MERGE:          0
cpu0->cpu0_ITLB LOAD         ACCESS:    4950470 HIT:    4950470 MISS:          0 MSHR_MERGE:          0
cpu0->cpu0_ITLB RFO          ACCESS:          0 HIT:          0 MISS:          0 MSHR_MERGE:          0
cpu0->cpu0_ITLB PREFETCH     ACCESS:          0 HIT:          0 MISS:          0 MSHR_MERGE:          0
cpu0->cpu0_ITLB WRITE        ACCESS:          0 HIT:          0 MISS:          0 MSHR_MERGE:          0
cpu0->cpu0_ITLB TRANSLATION  ACCESS:          0 HIT:          0 MISS:          0 MSHR_MERGE:          0
cpu0->cpu0_ITLB PREFETCH REQUESTED:          0 ISSUED:          0 USEFUL:          0 USELESS:          0
cpu0->cpu0_ITLB AVERAGE MISS LATENCY: - cycles
cpu0->cpu0_DTLB TOTAL        ACCESS:   14277769 HIT:   14251119 MISS:      26650 MSHR_MERGE:      12883
cpu0->cpu0_DTLB LOAD         ACCESS:   14277769 HIT:   14251119 MISS:      26650 MSHR_MERGE:      12883
cpu0->cpu0_DTLB RFO          ACCESS:          0 HIT:          0 MISS:          0 MSHR_MERGE:          0
cpu0->cpu0_DTLB PREFETCH     ACCESS:          0 HIT:          0 MISS:          0 MSHR_MERGE:          0
cpu0->cpu0_DTLB WRITE        ACCESS:          0 HIT:          0 MISS:          0 MSHR_MERGE:          0
cpu0->cpu0_DTLB TRANSLATION  ACCESS:          0 HIT:          0 MISS:          0 MSHR_MERGE:          0
cpu0->cpu0_DTLB PREFETCH REQUESTED:          0 ISSUED:          0 USEFUL:          0 USELESS:          0
cpu0->cpu0_DTLB AVERAGE MISS LATENCY: 570.8 cycles
cpu0->LLC TOTAL        ACCESS:      47343 HIT:      12865 MISS:      34478 MSHR_MERGE:          0
cpu0->LLC LOAD         ACCESS:      15595 HIT:       1296 MISS:      14299 MSHR_MERGE:          0
cpu0->LLC RFO          ACCESS:        632 HIT:        272 MISS:        360 MSHR_MERGE:          0
cpu0->LLC PREFETCH     ACCESS:          0 HIT:          0 MISS:          0 MSHR_MERGE:          0
cpu0->LLC WRITE        ACCESS:       6911 HIT:       6334 MISS:        577 MSHR_MERGE:          0
cpu0->LLC TRANSLATION  ACCESS:      24205 HIT:       4963 MISS:      19242 MSHR_MERGE:          0
cpu0->LLC PREFETCH REQUESTED:          0 ISSUED:          0 USEFUL:          0 USELESS:          0
cpu0->LLC AVERAGE MISS LATENCY: 158.4 cycles

DRAM Statistics

Channel 0 RQ ROW_BUFFER_HIT:         14
  ROW_BUFFER_MISS:      33887
  AVG DBUS CONGESTED CYCLE: 5.568
Channel 0 WQ ROW_BUFFER_HIT:         41
  ROW_BUFFER_MISS:       2012
  FULL:          0
Channel 0 REFRESHES ISSUED:       3863
