[VMEM] WARNING: physical memory size is smaller than virtual memory size.

*** ChampSim Multicore Out-of-Order Simulator ***
Warmup Instructions: 10000000
Simulation Instructions: 50000000
Number of CPUs: 1
Page size: 4096

Off-chip DRAM Size: 16 GiB Channels: 1 Width: 64-bit Data Rate: 3205 MT/s
Heartbeat CPU 0 instructions: 10000002 cycles: 6371539 heartbeat IPC: 1.569 cumulative IPC: 1.569 (Simulation time: 00 hr 00 min 46 sec)
Warmup finished CPU 0 instructions: 10000002 cycles: 6371539 cumulative IPC: 1.569 (Simulation time: 00 hr 00 min 46 sec)
Warmup complete CPU 0 instructions: 10000002 cycles: 6371539 cumulative IPC: 1.569 (Simulation time: 00 hr 00 min 46 sec)
Heartbeat CPU 0 instructions: 20000002 cycles: 45115457 heartbeat IPC: 0.2581 cumulative IPC: 0.2581 (Simulation time: 00 hr 03 min 03 sec)
Heartbeat CPU 0 instructions: 30000004 cycles: 81595884 heartbeat IPC: 0.2741 cumulative IPC: 0.2659 (Simulation time: 00 hr 05 min 12 sec)
Heartbeat CPU 0 instructions: 40000008 cycles: 118880477 heartbeat IPC: 0.2682 cumulative IPC: 0.2666 (Simulation time: 00 hr 07 min 27 sec)
Heartbeat CPU 0 instructions: 50000008 cycles: 155494176 heartbeat IPC: 0.2731 cumulative IPC: 0.2682 (Simulation time: 00 hr 09 min 37 sec)
Simulation finished CPU 0 instructions: 50000004 cycles: 183867826 cumulative IPC: 0.2719 (Simulation time: 00 hr 11 min 43 sec)
Simulation complete CPU 0 instructions: 50000004 cycles: 183867826 cumulative IPC: 0.2719 (Simulation time: 00 hr 11 min 43 sec)

ChampSim completed all CPUs

=== Simulation ===
CPU 0 runs traces/620.omnetpp_s-141B.champsimtrace.xz

Region of Interest Statistics

CPU 0 cumulative IPC: 0.2719 instructions: 50000004 cycles: 183867826
CPU 0 Branch Prediction Accuracy: 92.8% MPKI: 15.15 Average ROB Occupancy at Mispredict: 40.67
Branch type MPKI
BRANCH_DIRECT_JUMP: 0.8368
BRANCH_INDIRECT: 0.3548
BRANCH_CONDITIONAL: 12.65
BRANCH_DIRECT_CALL: 0.00142
BRANCH_INDIRECT_CALL: 0.8572
BRANCH_RETURN: 0.4452

cpu0->cpu0_STLB TOTAL        ACCESS:    1112040 HIT:     867209 MISS:     244831 MSHR_MERGE:          0
cpu0->cpu0_STLB LOAD         ACCESS:    1112040 HIT:     867209 MISS:     244831 MSHR_MERGE:          0
cpu0->cpu0_STLB RFO          ACCESS:          0 HIT:          0 MISS:          0 MSHR_MERGE:          0
cpu0->cpu0_STLB PREFETCH     ACCESS:          0 HIT:          0 MISS:          0 MSHR_MERGE:          0
cpu0->cpu0_STLB WRITE        ACCESS:          0 HIT:          0 MISS:          0 MSHR_MERGE:          0
cpu0->cpu0_STLB TRANSLATION  ACCESS:          0 HIT:          0 MISS:          0 MSHR_MERGE:          0
cpu0->cpu0_STLB PREFETCH REQUESTED:          0 ISSUED:          0 USEFUL:          0 USELESS:          0
cpu0->cpu0_STLB AVERAGE MISS LATENCY: 328.1 cycles
cpu0->cpu0_L2C TOTAL        ACCESS:    2041324 HIT:     745592 MISS:    1295732 MSHR_MERGE:          0
cpu0->cpu0_L2C LOAD         ACCESS:     900932 HIT:     260367 MISS:     640565 MSHR_MERGE:          0
cpu0->cpu0_L2C RFO          ACCESS:     118380 HIT:      41568 MISS:      76812 MSHR_MERGE:          0
cpu0->cpu0_L2C PREFETCH     ACCESS:          0 HIT:          0 MISS:          0 MSHR_MERGE:          0
cpu0->cpu0_L2C WRITE        ACCESS:     478410 HIT:     326967 MISS:     151443 MSHR_MERGE:          0
cpu0->cpu0_L2C TRANSLATION  ACCESS:     543602 HIT:     116690 MISS:     426912 MSHR_MERGE:          0
cpu0->cpu0_L2C PREFETCH REQUESTED:          0 ISSUED:          0 USEFUL:          0 USELESS:          0
cpu0->cpu0_L2C AVERAGE MISS LATENCY: 137.4 cycles
cpu0->cpu0_L1I TOTAL        ACCESS:    6701691 HIT:    6665537 MISS:      36154 MSHR_MERGE:       8657
cpu0->cpu0_L1I LOAD         ACCESS:    6701691 HIT:    6665537 MISS:      36154 MSHR_MERGE:       8657
cpu0->cpu0_L1I RFO          ACCESS:          0 HIT:          0 MISS:          0 MSHR_MERGE:          0
cpu0->cpu0_L1I PREFETCH     ACCESS:          0 HIT:          0 MISS:          0 MSHR_MERGE:          0
cpu0->cpu0_L1I WRITE        ACCESS:          0 HIT:          0 MISS:          0 MSHR_MERGE:          0
cpu0->cpu0_L1I TRANSLATION  ACCESS:          0 HIT:          0 MISS:          0 MSHR_MERGE:          0
cpu0->cpu0_L1I PREFETCH REQUESTED:          0 ISSUED:          0 USEFUL:          0 USELESS:          0
cpu0->cpu0_L1I AVERAGE MISS LATENCY: 20.72 cycles
cpu0->cpu0_L1D TOTAL        ACCESS:   20537753 HIT:   18508864 MISS:    2028889 MSHR_MERGE:     493471
cpu0->cpu0_L1D LOAD         ACCESS:   10883342 HIT:    9760527 MISS:    1122815 MSHR_MERGE:     249379
cpu0->cpu0_L1D RFO          ACCESS:          0 HIT:          0 MISS:          0 MSHR_MERGE:          0
cpu0->cpu0_L1D PREFETCH     ACCESS:          0 HIT:          0 MISS:          0 MSHR_MERGE:          0
cpu0->cpu0_L1D WRITE        ACCESS:    9065053 HIT:    8704061 MISS:     360992 MSHR_MERGE:     242612
cpu0->cpu0_L1D TRANSLATION  ACCESS:     589358 HIT:      44276 MISS:     545082 MSHR_MERGE:       1480
cpu0->cpu0_L1D PREFETCH REQUESTED:          0 ISSUED:          0 USEFUL:          0 USELESS:          0
cpu0->cpu0_L1D AVERAGE MISS LATENCY: 124.1 cycles
cpu0->cpu0_ITLB TOTAL        ACCESS:    5914693 HIT:    5761946 MISS:     152747 MSHR_MERGE:      74278
cpu0->cpu0_ITLB LOAD         ACCESS:    5914693 HIT:    5761946 MISS:     152747 MSHR_MERGE:      74278
cpu0->cpu0_ITLB RFO          ACCESS:          0 HIT:          0 MISS:          0 MSHR_MERGE:          0
cpu0->cpu0_ITLB PREFETCH     ACCESS:          0 HIT:          0 MISS:          0 MSHR_MERGE:          0
cpu0->cpu0_ITLB WRITE        ACCESS:          0 HIT:          0 MISS:          0 MSHR_MERGE:          0
cpu0->cpu0_ITLB TRANSLATION  ACCESS:          0 HIT:          0 MISS:          0 MSHR_MERGE:          0
cpu0->cpu0_ITLB PREFETCH REQUESTED:          0 ISSUED:          0 USEFUL:          0 USELESS:          0
cpu0->cpu0_ITLB AVERAGE MISS LATENCY: 7.799 cycles
cpu0->cpu0_DTLB TOTAL        ACCESS:   18980091 HIT:   17766307 MISS:    1213784 MSHR_MERGE:     180213
cpu0->cpu0_DTLB LOAD         ACCESS:   18980091 HIT:   17766307 MISS:    1213784 MSHR_MERGE:     180213
cpu0->cpu0_DTLB RFO          ACCESS:          0 HIT:          0 MISS:          0 MSHR_MERGE:          0
cpu0->cpu0_DTLB PREFETCH     ACCESS:          0 HIT:          0 MISS:          0 MSHR_MERGE:          0
cpu0->cpu0_DTLB WRITE        ACCESS:          0 HIT:          0 MISS:          0 MSHR_MERGE:          0
cpu0->cpu0_DTLB TRANSLATION  ACCESS:          0 HIT:          0 MISS:          0 MSHR_MERGE:          0
cpu0->cpu0_DTLB PREFETCH REQUESTED:          0 ISSUED:          0 USEFUL:          0 USELESS:          0
cpu0->cpu0_DTLB AVERAGE MISS LATENCY: 82.74 cycles
cpu0->LLC TOTAL        ACCESS:    1456865 HIT:     524819 MISS:     932046 MSHR_MERGE:          0
cpu0->LLC LOAD         ACCESS:     640565 HIT:     151200 MISS:     489365 MSHR_MERGE:          0
cpu0->LLC RFO          ACCESS:      76812 HIT:      18521 MISS:      58291 MSHR_MERGE:          0
cpu0->LLC PREFETCH     ACCESS:          0 HIT:          0 MISS:          0 MSHR_MERGE:          0
cpu0->LLC WRITE        ACCESS:     312576 HIT:     218309 MISS:      94267 MSHR_MERGE:          0
cpu0->LLC TRANSLATION  ACCESS:     426912 HIT:     136789 MISS:     290123 MSHR_MERGE:          0
cpu0->LLC PREFETCH REQUESTED:          0 ISSUED:          0 USEFUL:          0 USELESS:          0
cpu0->LLC AVERAGE MISS LATENCY: 171.9 cycles

DRAM Statistics

Channel 0 RQ ROW_BUFFER_HIT:       3001
  ROW_BUFFER_MISS:     834758
  AVG DBUS CONGESTED CYCLE: 19.8
Channel 0 WQ ROW_BUFFER_HIT:      97564
  ROW_BUFFER_MISS:     175576
  FULL:          0
Channel 0 REFRESHES ISSUED:      15323
