[VMEM] WARNING: physical memory size is smaller than virtual memory size.

*** ChampSim Multicore Out-of-Order Simulator ***
Warmup Instructions: 10000000
Simulation Instructions: 50000000
Number of CPUs: 1
Page size: 4096

Off-chip DRAM Size: 16 GiB Channels: 1 Width: 64-bit Data Rate: 3205 MT/s
Heartbeat CPU 0 instructions: 10000000 cycles: 2700693 heartbeat IPC: 3.703 cumulative IPC: 3.703 (Simulation time: 00 hr 00 min 19 sec)
Warmup finished CPU 0 instructions: 10000000 cycles: 2700693 cumulative IPC: 3.703 (Simulation time: 00 hr 00 min 19 sec)
Warmup complete CPU 0 instructions: 10000000 cycles: 2700693 cumulative IPC: 3.703 (Simulation time: 00 hr 00 min 19 sec)
Heartbeat CPU 0 instructions: 20000000 cycles: 16096260 heartbeat IPC: 0.7465 cumulative IPC: 0.7465 (Simulation time: 00 hr 01 min 11 sec)
Heartbeat CPU 0 instructions: 30000001 cycles: 29259430 heartbeat IPC: 0.7597 cumulative IPC: 0.753 (Simulation time: 00 hr 02 min 01 sec)
Heartbeat CPU 0 instructions: 40000002 cycles: 42655508 heartbeat IPC: 0.7465 cumulative IPC: 0.7508 (Simulation time: 00 hr 02 min 53 sec)
Heartbeat CPU 0 instructions: 50000003 cycles: 55821989 heartbeat IPC: 0.7595 cumulative IPC: 0.753 (Simulation time: 00 hr 03 min 43 sec)
Simulation finished CPU 0 instructions: 50000000 cycles: 66498916 cumulative IPC: 0.7519 (Simulation time: 00 hr 04 min 33 sec)
Simulation complete CPU 0 instructions: 50000000 cycles: 66498916 cumulative IPC: 0.7519 (Simulation time: 00 hr 04 min 33 sec)

ChampSim completed all CPUs

=== Simulation ===
CPU 0 runs traces/623.xalancbmk_s-165B.champsimtrace.xz

Region of Interest Statistics

CPU 0 cumulative IPC: 0.7519 instructions: 50000000 cycles: 66498916
CPU 0 Branch Prediction Accuracy: 96.52% MPKI: 9.704 Average ROB Occupancy at Mispredict: 59.3
Branch type MPKI
BRANCH_DIRECT_JUMP: 0
BRANCH_INDIRECT: 0
BRANCH_CONDITIONAL: 9.704
BRANCH_DIRECT_CALL: 0
BRANCH_INDIRECT_CALL: 0
BRANCH_RETURN: 0

cpu0->cpu0_STLB TOTAL        ACCESS:      17753 HIT:      17693 MISS:         60 MSHR_MERGE:          0
cpu0->cpu0_STLB LOAD         ACCESS:      17753 HIT:      17693 MISS:         60 MSHR_MERGE:          0
cpu0->cpu0_STLB RFO          ACCESS:          0 HIT:          0 MISS:          0 MSHR_MERGE:          0
cpu0->cpu0_STLB PREFETCH     ACCESS:          0 HIT:          0 MISS:          0 MSHR_MERGE:          0
cpu0->cpu0_STLB WRITE        ACCESS:          0 HIT:          0 MISS:          0 MSHR_MERGE:          0
cpu0->cpu0_STLB TRANSLATION  ACCESS:          0 HIT:          0 MISS:          0 MSHR_MERGE:          0
cpu0->cpu0_STLB PREFETCH REQUESTED:          0 ISSUED:          0 USEFUL:          0 USELESS:          0
cpu0->cpu0_STLB AVERAGE MISS LATENCY: 757.2 cycles
cpu0->cpu0_L2C TOTAL        ACCESS:     951706 HIT:     187804 MISS:     763902 MSHR_MERGE:          0
cpu0->cpu0_L2C LOAD         ACCESS:     950908 HIT:     187348 MISS:     763560 MSHR_MERGE:          0
cpu0->cpu0_L2C RFO          ACCESS:        280 HIT:         81 MISS:        199 MSHR_MERGE:          0
cpu0->cpu0_L2C PREFETCH     ACCESS:          0 HIT:          0 MISS:          0 MSHR_MERGE:          0
cpu0->cpu0_L2C WRITE        ACCESS:        412 HIT:        375 MISS:         37 MSHR_MERGE:          0
cpu0->cpu0_L2C TRANSLATION  ACCESS:        106 HIT:          0 MISS:        106 MSHR_MERGE:          0
cpu0->cpu0_L2C PREFETCH REQUESTED:          0 ISSUED:          0 USEFUL:          0 USELESS:          0
cpu0->cpu0_L2C AVERAGE MISS LATENCY: 76.12 cycles
cpu0->cpu0_L1I TOTAL        ACCESS:       1608 HIT:       1608 MISS:          0 MSHR_MERGE:          0
cpu0->cpu0_L1I LOAD         ACCESS:       1608 HIT:       1608 MISS:          0 MSHR_MERGE:          0
cpu0->cpu0_L1I RFO          ACCESS:          0 HIT:          0 MISS:          0 MSHR_MERGE:          0
cpu0->cpu0_L1I PREFETCH     ACCESS:          0 HIT:          0 MISS:          0 MSHR_MERGE:          0
cpu0->cpu0_L1I WRITE        ACCESS:          0 HIT:          0 MISS:          0 MSHR_MERGE:          0
cpu0->cpu0_L1I TRANSLATION  ACCESS:          0 HIT:          0 MISS:          0 MSHR_MERGE:          0
cpu0->cpu0_L1I PREFETCH REQUESTED:          0 ISSUED:          0 USEFUL:          0 USELESS:          0
cpu0->cpu0_L1I AVERAGE MISS LATENCY: - cycles
cpu0->cpu0_L1D TOTAL        ACCESS:   14055393 HIT:   11012128 MISS:    3043265 MSHR_MERGE:    2091971
cpu0->cpu0_L1D LOAD         ACCESS:   13399031 HIT:   10357192 MISS:    3041839 MSHR_MERGE:    2090931
cpu0->cpu0_L1D RFO          ACCESS:          0 HIT:          0 MISS:          0 MSHR_MERGE:          0
cpu0->cpu0_L1D PREFETCH     ACCESS:          0 HIT:          0 MISS:          0 MSHR_MERGE:          0
cpu0->cpu0_L1D WRITE        ACCESS:     656242 HIT:     654926 MISS:       1316 MSHR_MERGE:       1036
cpu0->cpu0_L1D TRANSLATION  ACCESS:        120 HIT:         10 MISS:        110 MSHR_MERGE:          4
cpu0->cpu0_L1D PREFETCH REQUESTED:          0 ISSUED:          0 USEFUL:          0 USELESS:          0
cpu0->cpu0_L1D AVERAGE MISS LATENCY: 69.94 cycles
cpu0->cpu0_ITLB TOTAL        ACCESS:       1403 HIT:       1403 MISS:          0 MSHR_MERGE:          0
cpu0->cpu0_ITLB LOAD         ACCESS:       1403 HIT:       1403 MISS:          0 MSHR_MERGE:          0
cpu0->cpu0_ITLB RFO          ACCESS:          0 HIT:          0 MISS:          0 MSHR_MERGE:          0
cpu0->cpu0_ITLB PREFETCH     ACCESS:          0 HIT:          0 MISS:          0 MSHR_MERGE:          0
cpu0->cpu0_ITLB WRITE        ACCESS:          0 HIT:          0 MISS:          0 MSHR_MERGE:          0
cpu0->cpu0_ITLB TRANSLATION  ACCESS:          0 HIT:          0 MISS:          0 MSHR_MERGE:          0
cpu0->cpu0_ITLB PREFETCH REQUESTED:          0 ISSUED:          0 USEFUL:          0 USELESS:          0
cpu0->cpu0_ITLB AVERAGE MISS LATENCY: - cycles
cpu0->cpu0_DTLB TOTAL        ACCESS:   13950856 HIT:   13908693 MISS:      42163 MSHR_MERGE:      24410
cpu0->cpu0_DTLB LOAD         ACCESS:   13950856 HIT:   13908693 MISS:      42163 MSHR_MERGE:      24410
cpu0->cpu0_DTLB RFO          ACCESS:          0 HIT:          0 MISS:          0 MSHR_MERGE:          0
cpu0->cpu0_DTLB PREFETCH     ACCESS:          0 HIT:          0 MISS:          0 MSHR_MERGE:          0
cpu0->cpu0_DTLB WRITE        ACCESS:          0 HIT:          0 MISS:          0 MSHR_MERGE:          0
cpu0->cpu0_DTLB TRANSLATION  ACCESS:          0 HIT:          0 MISS:          0 MSHR_MERGE:          0
cpu0->cpu0_DTLB PREFETCH REQUESTED:          0 ISSUED:          0 USEFUL:          0 USELESS:          0
cpu0->cpu0_DTLB AVERAGE MISS LATENCY: 7.562 cycles
cpu0->LLC TOTAL        ACCESS:     764056 HIT:     458678 MISS:     305378 MSHR_MERGE:          0
cpu0->LLC LOAD         ACCESS:     763560 HIT:     458453 MISS:     305107 MSHR_MERGE:          0
cpu0->LLC RFO          ACCESS:        199 HIT:         27 MISS:        172 MSHR_MERGE:          0
cpu0->LLC PREFETCH     ACCESS:          0 HIT:          0 MISS:          0 MSHR_MERGE:          0
cpu0->LLC WRITE        ACCESS:        191 HIT:        191 MISS:          0 MSHR_MERGE:          0
cpu0->LLC TRANSLATION  ACCESS:        106 HIT:          7 MISS:         99 MSHR_MERGE:          0
cpu0->LLC PREFETCH REQUESTED:          0 ISSUED:          0 USEFUL:          0 USELESS:          0
cpu0->LLC AVERAGE MISS LATENCY: 151.9 cycles

DRAM Statistics

Channel 0 RQ ROW_BUFFER_HIT:      78686
  ROW_BUFFER_MISS:     226692
  AVG DBUS CONGESTED CYCLE: 3.093
Channel 0 WQ ROW_BUFFER_HIT:         20
  ROW_BUFFER_MISS:         40
  FULL:          0
Channel 0 REFRESHES ISSUED:       5541
