[VMEM] WARNING: physical memory size is smaller than virtual memory size.

*** ChampSim Multicore Out-of-Order Simulator ***
Warmup Instructions: 10000000
Simulation Instructions: 50000000
Number of CPUs: 1
Page size: 4096

Off-chip DRAM Size: 16 GiB Channels: 1 Width: 64-bit Data Rate: 3205 MT/s
Heartbeat CPU 0 instructions: 10000001 cycles: 2967387 heartbeat IPC: 3.37 cumulative IPC: 3.37 (Simulation time: 00 hr 00 min 27 sec)
Warmup finished CPU 0 instructions: 10000001 cycles: 2967387 cumulative IPC: 3.37 (Simulation time: 00 hr 00 min 27 sec)
Warmup complete CPU 0 instructions: 10000001 cycles: 2967387 cumulative IPC: 3.37 (Simulation time: 00 hr 00 min 27 sec)
Heartbeat CPU 0 instructions: 20000002 cycles: 9484764 heartbeat IPC: 1.534 cumulative IPC: 1.534 (Simulation time: 00 hr 01 min 09 sec)
Heartbeat CPU 0 instructions: 30000006 cycles: 15940061 heartbeat IPC: 1.549 cumulative IPC: 1.542 (Simulation time: 00 hr 01 min 51 sec)
Heartbeat CPU 0 instructions: 40000007 cycles: 22367352 heartbeat IPC: 1.556 cumulative IPC: 1.546 (Simulation time: 00 hr 02 min 33 sec)
Heartbeat CPU 0 instructions: 50000008 cycles: 28840822 heartbeat IPC: 1.545 cumulative IPC: 1.546 (Simulation time: 00 hr 03 min 15 sec)
Simulation finished CPU 0 instructions: 50000001 cycles: 35960788 cumulative IPC: 1.39 (Simulation time: 00 hr 04 min 12 sec)
Simulation complete CPU 0 instructions: 50000001 cycles: 35960788 cumulative IPC: 1.39 (Simulation time: 00 hr 04 min 12 sec)

ChampSim completed all CPUs

=== Simulation ===
CPU 0 runs traces/607.cactuBSSN_s-2421B.champsimtrace.xz

Region of Interest Statistics

CPU 0 cumulative IPC: 1.39 instructions: 50000001 cycles: 35960788
CPU 0 Branch Prediction Accuracy: 91.79% MPKI: 0.676 Average ROB Occupancy at Mispredict: 301.6
Branch type MPKI
BRANCH_DIRECT_JUMP: 0.00124
BRANCH_INDIRECT: 0.00164
BRANCH_CONDITIONAL: 0.3451
BRANCH_DIRECT_CALL: 0.01318
BRANCH_INDIRECT_CALL: 6e-05
BRANCH_RETURN: 0.3147

cpu0->cpu0_STLB TOTAL        ACCESS:    2209708 HIT:    2206649 MISS:       3059 MSHR_MERGE:          0
cpu0->cpu0_STLB LOAD         ACCESS:    2209708 HIT:    2206649 MISS:       3059 MSHR_MERGE:          0
cpu0->cpu0_STLB RFO          ACCESS:          0 HIT:          0 MISS:          0 MSHR_MERGE:          0
cpu0->cpu0_STLB PREFETCH     ACCESS:          0 HIT:          0 MISS:          0 MSHR_MERGE:          0
cpu0->cpu0_STLB WRITE        ACCESS:          0 HIT:          0 MISS:          0 MSHR_MERGE:          0
cpu0->cpu0_STLB TRANSLATION  ACCESS:          0 HIT:          0 MISS:          0 MSHR_MERGE:          0
cpu0->cpu0_STLB PREFETCH REQUESTED:          0 ISSUED:          0 USEFUL:          0 USELESS:          0
cpu0->cpu0_STLB AVERAGE MISS LATENCY: 833.9 cycles
cpu0->cpu0_L2C TOTAL        ACCESS:    5457521 HIT:    3247257 MISS:    2210264 MSHR_MERGE:          0
cpu0->cpu0_L2C LOAD         ACCESS:    4777268 HIT:    2748591 MISS:    2028677 MSHR_MERGE:          0
cpu0->cpu0_L2C RFO          ACCESS:     321608 HIT:     222549 MISS:      99059 MSHR_MERGE:          0
cpu0->cpu0_L2C PREFETCH     ACCESS:          0 HIT:          0 MISS:          0 MSHR_MERGE:          0
cpu0->cpu0_L2C WRITE        ACCESS:     351190 HIT:     276047 MISS:      75143 MSHR_MERGE:          0
cpu0->cpu0_L2C TRANSLATION  ACCESS:       7455 HIT:         70 MISS:       7385 MSHR_MERGE:          0
cpu0->cpu0_L2C PREFETCH REQUESTED:          0 ISSUED:          0 USEFUL:          0 USELESS:          0
cpu0->cpu0_L2C AVERAGE MISS LATENCY: 32.35 cycles
cpu0->cpu0_L1I TOTAL        ACCESS:   10969465 HIT:    8875595 MISS:    2093870 MSHR_MERGE:    1004116
cpu0->cpu0_L1I LOAD         ACCESS:   10969465 HIT:    8875595 MISS:    2093870 MSHR_MERGE:    1004116
cpu0->cpu0_L1I RFO          ACCESS:          0 HIT:          0 MISS:          0 MSHR_MERGE:          0
cpu0->cpu0_L1I PREFETCH     ACCESS:          0 HIT:          0 MISS:          0 MSHR_MERGE:          0
cpu0->cpu0_L1I WRITE        ACCESS:          0 HIT:          0 MISS:          0 MSHR_MERGE:          0
cpu0->cpu0_L1I TRANSLATION  ACCESS:          0 HIT:          0 MISS:          0 MSHR_MERGE:          0
cpu0->cpu0_L1I PREFETCH REQUESTED:          0 ISSUED:          0 USEFUL:          0 USELESS:          0
cpu0->cpu0_L1I AVERAGE MISS LATENCY: 9.185 cycles
cpu0->cpu0_L1D TOTAL        ACCESS:   18804568 HIT:   14264336 MISS:    4540232 MSHR_MERGE:     521591
cpu0->cpu0_L1D LOAD         ACCESS:   14505727 HIT:   10329384 MISS:    4176343 MSHR_MERGE:     486796
cpu0->cpu0_L1D RFO          ACCESS:          0 HIT:          0 MISS:          0 MSHR_MERGE:          0
cpu0->cpu0_L1D PREFETCH     ACCESS:          0 HIT:          0 MISS:          0 MSHR_MERGE:          0
cpu0->cpu0_L1D WRITE        ACCESS:    4291201 HIT:    3934824 MISS:     356377 MSHR_MERGE:      34738
cpu0->cpu0_L1D TRANSLATION  ACCESS:       7640 HIT:        128 MISS:       7512 MSHR_MERGE:         57
cpu0->cpu0_L1D PREFETCH REQUESTED:          0 ISSUED:          0 USEFUL:          0 USELESS:          0
cpu0->cpu0_L1D AVERAGE MISS LATENCY: 26.45 cycles
cpu0->cpu0_ITLB TOTAL        ACCESS:    8820366 HIT:    8820239 MISS:        127 MSHR_MERGE:         67
cpu0->cpu0_ITLB LOAD         ACCESS:    8820366 HIT:    8820239 MISS:        127 MSHR_MERGE:         67
cpu0->cpu0_ITLB RFO          ACCESS:          0 HIT:          0 MISS:          0 MSHR_MERGE:          0
cpu0->cpu0_ITLB PREFETCH     ACCESS:          0 HIT:          0 MISS:          0 MSHR_MERGE:          0
cpu0->cpu0_ITLB WRITE        ACCESS:          0 HIT:          0 MISS:          0 MSHR_MERGE:          0
cpu0->cpu0_ITLB TRANSLATION  ACCESS:          0 HIT:          0 MISS:          0 MSHR_MERGE:          0
cpu0->cpu0_ITLB PREFETCH REQUESTED:          0 ISSUED:          0 USEFUL:          0 USELESS:          0
cpu0->cpu0_ITLB AVERAGE MISS LATENCY: 790.3 cycles
cpu0->cpu0_DTLB TOTAL        ACCESS:   17727358 HIT:   15180607 MISS:    2546751 MSHR_MERGE:     337103
cpu0->cpu0_DTLB LOAD         ACCESS:   17727358 HIT:   15180607 MISS:    2546751 MSHR_MERGE:     337103
cpu0->cpu0_DTLB RFO          ACCESS:          0 HIT:          0 MISS:          0 MSHR_MERGE:          0
cpu0->cpu0_DTLB PREFETCH     ACCESS:          0 HIT:          0 MISS:          0 MSHR_MERGE:          0
cpu0->cpu0_DTLB WRITE        ACCESS:          0 HIT:          0 MISS:          0 MSHR_MERGE:          0
cpu0->cpu0_DTLB TRANSLATION  ACCESS:          0 HIT:          0 MISS:          0 MSHR_MERGE:          0
cpu0->cpu0_DTLB PREFETCH REQUESTED:          0 ISSUED:          0 USEFUL:          0 USELESS:          0
cpu0->cpu0_DTLB AVERAGE MISS LATENCY: 6.174 cycles
cpu0->LLC TOTAL        ACCESS:    2227871 HIT:    2045959 MISS:     181912 MSHR_MERGE:          0
cpu0->LLC LOAD         ACCESS:    2028630 HIT:    1877790 MISS:     150840 MSHR_MERGE:          0
cpu0->LLC RFO          ACCESS:      98657 HIT:      73984 MISS:      24673 MSHR_MERGE:          0
cpu0->LLC PREFETCH     ACCESS:          0 HIT:          0 MISS:          0 MSHR_MERGE:          0
cpu0->LLC WRITE        ACCESS:      93199 HIT:      91736 MISS:       1463 MSHR_MERGE:          0
cpu0->LLC TRANSLATION  ACCESS:       7385 HIT:       2449 MISS:       4936 MSHR_MERGE:          0
cpu0->LLC PREFETCH REQUESTED:          0 ISSUED:          0 USEFUL:          0 USELESS:          0
cpu0->LLC AVERAGE MISS LATENCY: 214.3 cycles

DRAM Statistics

Channel 0 RQ ROW_BUFFER_HIT:        121
  ROW_BUFFER_MISS:     180328
  AVG DBUS CONGESTED CYCLE: 9.42
Channel 0 WQ ROW_BUFFER_HIT:       3854
  ROW_BUFFER_MISS:      29662
  FULL:          0
Channel 0 REFRESHES ISSUED:       2997
