[VMEM] WARNING: physical memory size is smaller than virtual memory size.

*** ChampSim Multicore Out-of-Order Simulator ***
Warmup Instructions: 10000000
Simulation Instructions: 50000000
Number of CPUs: 1
Page size: 4096

Off-chip DRAM Size: 16 GiB Channels: 1 Width: 64-bit Data Rate: 3205 MT/s
Heartbeat CPU 0 instructions: 10000000 cycles: 2627408 heartbeat IPC: 3.806 cumulative IPC: 3.806 (Simulation time: 00 hr 00 min 21 sec)
Warmup finished CPU 0 instructions: 10000000 cycles: 2627408 cumulative IPC: 3.806 (Simulation time: 00 hr 00 min 21 sec)
Warmup complete CPU 0 instructions: 10000000 cycles: 2627408 cumulative IPC: 3.806 (Simulation time: 00 hr 00 min 21 sec)
Heartbeat CPU 0 instructions: 20000003 cycles: 16583111 heartbeat IPC: 0.7166 cumulative IPC: 0.7166 (Simulation time: 00 hr 01 min 20 sec)
Heartbeat CPU 0 instructions: 30000004 cycles: 26565015 heartbeat IPC: 1.002 cumulative IPC: 0.8355 (Simulation time: 00 hr 02 min 02 sec)
Heartbeat CPU 0 instructions: 40000004 cycles: 36140238 heartbeat IPC: 1.044 cumulative IPC: 0.8952 (Simulation time: 00 hr 02 min 43 sec)
Heartbeat CPU 0 instructions: 50000007 cycles: 45625092 heartbeat IPC: 1.054 cumulative IPC: 0.9303 (Simulation time: 00 hr 03 min 23 sec)
Simulation finished CPU 0 instructions: 50000000 cycles: 52581014 cumulative IPC: 0.9509 (Simulation time: 00 hr 04 min 04 sec)
Simulation complete CPU 0 instructions: 50000000 cycles: 52581014 cumulative IPC: 0.9509 (Simulation time: 00 hr 04 min 04 sec)

ChampSim completed all CPUs

=== Simulation ===
CPU 0 runs traces/641.leela_s-149B.champsimtrace.xz

Region of Interest Statistics

CPU 0 cumulative IPC: 0.9509 instructions: 50000000 cycles: 52581014
CPU 0 Branch Prediction Accuracy: 88.24% MPKI: 19.91 Average ROB Occupancy at Mispredict: 20.22
Branch type MPKI
BRANCH_DIRECT_JUMP: 0.1049
BRANCH_INDIRECT: 0.0134
BRANCH_CONDITIONAL: 19.75
BRANCH_DIRECT_CALL: 0.00596
BRANCH_INDIRECT_CALL: 0.0036
BRANCH_RETURN: 0.0321

cpu0->cpu0_STLB TOTAL        ACCESS:      20372 HIT:      19822 MISS:        550 MSHR_MERGE:          0
cpu0->cpu0_STLB LOAD         ACCESS:      20372 HIT:      19822 MISS:        550 MSHR_MERGE:          0
cpu0->cpu0_STLB RFO          ACCESS:          0 HIT:          0 MISS:          0 MSHR_MERGE:          0
cpu0->cpu0_STLB PREFETCH     ACCESS:          0 HIT:          0 MISS:          0 MSHR_MERGE:          0
cpu0->cpu0_STLB WRITE        ACCESS:          0 HIT:          0 MISS:          0 MSHR_MERGE:          0
cpu0->cpu0_STLB TRANSLATION  ACCESS:          0 HIT:          0 MISS:          0 MSHR_MERGE:          0
cpu0->cpu0_STLB PREFETCH REQUESTED:          0 ISSUED:          0 USEFUL:          0 USELESS:          0
cpu0->cpu0_STLB AVERAGE MISS LATENCY: 738.7 cycles
cpu0->cpu0_L2C TOTAL        ACCESS:     308594 HIT:     175854 MISS:     132740 MSHR_MERGE:          0
cpu0->cpu0_L2C LOAD         ACCESS:     137285 HIT:      77328 MISS:      59957 MSHR_MERGE:          0
cpu0->cpu0_L2C RFO          ACCESS:      66587 HIT:      37853 MISS:      28734 MSHR_MERGE:          0
cpu0->cpu0_L2C PREFETCH     ACCESS:          0 HIT:          0 MISS:          0 MSHR_MERGE:          0
cpu0->cpu0_L2C WRITE        ACCESS:     103829 HIT:      60670 MISS:      43159 MSHR_MERGE:          0
cpu0->cpu0_L2C TRANSLATION  ACCESS:        893 HIT:          3 MISS:        890 MSHR_MERGE:          0
cpu0->cpu0_L2C PREFETCH REQUESTED:          0 ISSUED:          0 USEFUL:          0 USELESS:          0
cpu0->cpu0_L2C AVERAGE MISS LATENCY: 46.77 cycles
cpu0->cpu0_L1I TOTAL        ACCESS:    5770490 HIT:    5749982 MISS:      20508 MSHR_MERGE:       8056
cpu0->cpu0_L1I LOAD         ACCESS:    5770490 HIT:    5749982 MISS:      20508 MSHR_MERGE:       8056
cpu0->cpu0_L1I RFO          ACCESS:          0 HIT:          0 MISS:          0 MSHR_MERGE:          0
cpu0->cpu0_L1I PREFETCH     ACCESS:          0 HIT:          0 MISS:          0 MSHR_MERGE:          0
cpu0->cpu0_L1I WRITE        ACCESS:          0 HIT:          0 MISS:          0 MSHR_MERGE:          0
cpu0->cpu0_L1I TRANSLATION  ACCESS:          0 HIT:          0 MISS:          0 MSHR_MERGE:          0
cpu0->cpu0_L1I PREFETCH REQUESTED:          0 ISSUED:          0 USEFUL:          0 USELESS:          0
cpu0->cpu0_L1I AVERAGE MISS LATENCY: 20.99 cycles
cpu0->cpu0_L1D TOTAL        ACCESS:   15800971 HIT:   15360372 MISS:     440599 MSHR_MERGE:     248285
cpu0->cpu0_L1D LOAD         ACCESS:    9192328 HIT:    9005427 MISS:     186901 MSHR_MERGE:      62067
cpu0->cpu0_L1D RFO          ACCESS:          0 HIT:          0 MISS:          0 MSHR_MERGE:          0
cpu0->cpu0_L1D PREFETCH     ACCESS:          0 HIT:          0 MISS:          0 MSHR_MERGE:          0
cpu0->cpu0_L1D WRITE        ACCESS:    6607542 HIT:    6354737 MISS:     252805 MSHR_MERGE:     186218
cpu0->cpu0_L1D TRANSLATION  ACCESS:       1101 HIT:        208 MISS:        893 MSHR_MERGE:          0
cpu0->cpu0_L1D PREFETCH REQUESTED:          0 ISSUED:          0 USEFUL:          0 USELESS:          0
cpu0->cpu0_L1D AVERAGE MISS LATENCY: 39.02 cycles
cpu0->cpu0_ITLB TOTAL        ACCESS:    5164874 HIT:    5164253 MISS:        621 MSHR_MERGE:        335
cpu0->cpu0_ITLB LOAD         ACCESS:    5164874 HIT:    5164253 MISS:        621 MSHR_MERGE:        335
cpu0->cpu0_ITLB RFO          ACCESS:          0 HIT:          0 MISS:          0 MSHR_MERGE:          0
cpu0->cpu0_ITLB PREFETCH     ACCESS:          0 HIT:          0 MISS:          0 MSHR_MERGE:          0
cpu0->cpu0_ITLB WRITE        ACCESS:          0 HIT:          0 MISS:          0 MSHR_MERGE:          0
cpu0->cpu0_ITLB TRANSLATION  ACCESS:          0 HIT:          0 MISS:          0 MSHR_MERGE:          0
cpu0->cpu0_ITLB PREFETCH REQUESTED:          0 ISSUED:          0 USEFUL:          0 USELESS:          0
cpu0->cpu0_ITLB AVERAGE MISS LATENCY: 119 cycles
cpu0->cpu0_DTLB TOTAL        ACCESS:   14976638 HIT:   14950704 MISS:      25934 MSHR_MERGE:       5848
cpu0->cpu0_DTLB LOAD         ACCESS:   14976638 HIT:   14950704 MISS:      25934 MSHR_MERGE:       5848
cpu0->cpu0_DTLB RFO          ACCESS:          0 HIT:          0 MISS:          0 MSHR_MERGE:          0
cpu0->cpu0_DTLB PREFETCH     ACCESS:          0 HIT:          0 MISS:          0 MSHR_MERGE:          0
cpu0->cpu0_DTLB WRITE        ACCESS:          0 HIT:          0 MISS:          0 MSHR_MERGE:          0
cpu0->cpu0_DTLB TRANSLATION  ACCESS:          0 HIT:          0 MISS:          0 MSHR_MERGE:          0
cpu0->cpu0_DTLB PREFETCH REQUESTED:          0 ISSUED:          0 USEFUL:          0 USELESS:          0
cpu0->cpu0_DTLB AVERAGE MISS LATENCY: 23.63 cycles
cpu0->LLC TOTAL        ACCESS:     139562 HIT:     111530 MISS:      28032 MSHR_MERGE:          0
cpu0->LLC LOAD         ACCESS:      59957 HIT:      41406 MISS:      18551 MSHR_MERGE:          0
cpu0->LLC RFO          ACCESS:      28734 HIT:      20856 MISS:       7878 MSHR_MERGE:          0
cpu0->LLC PREFETCH     ACCESS:          0 HIT:          0 MISS:          0 MSHR_MERGE:          0
cpu0->LLC WRITE        ACCESS:      49981 HIT:      49261 MISS:        720 MSHR_MERGE:          0
cpu0->LLC TRANSLATION  ACCESS:        890 HIT:          7 MISS:        883 MSHR_MERGE:          0
cpu0->LLC PREFETCH REQUESTED:          0 ISSUED:          0 USEFUL:          0 USELESS:          0
cpu0->LLC AVERAGE MISS LATENCY: 166.6 cycles

DRAM Statistics

Channel 0 RQ ROW_BUFFER_HIT:       2675
  ROW_BUFFER_MISS:      24636
  AVG DBUS CONGESTED CYCLE: 16.86
Channel 0 WQ ROW_BUFFER_HIT:        231
  ROW_BUFFER_MISS:       1330
  FULL:          0
Channel 0 REFRESHES ISSUED:       4382
