[VMEM] WARNING: physical memory size is smaller than virtual memory size.

*** ChampSim Multicore Out-of-Order Simulator ***
Warmup Instructions: 10000000
Simulation Instructions: 50000000
Number of CPUs: 1
Page size: 4096

Off-chip DRAM Size: 16 GiB Channels: 1 Width: 64-bit Data Rate: 3205 MT/s
Heartbeat CPU 0 instructions: 10000004 cycles: 4023927 heartbeat IPC: 2.485 cumulative IPC: 2.485 (Simulation time: 00 hr 00 min 29 sec)
Warmup finished CPU 0 instructions: 10000004 cycles: 4023927 cumulative IPC: 2.485 (Simulation time: 00 hr 00 min 29 sec)
Warmup complete CPU 0 instructions: 10000004 cycles: 4023927 cumulative IPC: 2.485 (Simulation time: 00 hr 00 min 29 sec)
Heartbeat CPU 0 instructions: 20000006 cycles: 45878028 heartbeat IPC: 0.2389 cumulative IPC: 0.2389 (Simulation time: 00 hr 04 min 03 sec)
Heartbeat CPU 0 instructions: 30000007 cycles: 87289540 heartbeat IPC: 0.2415 cumulative IPC: 0.2402 (Simulation time: 00 hr 07 min 36 sec)
Heartbeat CPU 0 instructions: 40000008 cycles: 129915693 heartbeat IPC: 0.2346 cumulative IPC: 0.2383 (Simulation time: 00 hr 11 min 13 sec)
Heartbeat CPU 0 instructions: 50000011 cycles: 171420759 heartbeat IPC: 0.2409 cumulative IPC: 0.239 (Simulation time: 00 hr 14 min 45 sec)
Simulation finished CPU 0 instructions: 50000004 cycles: 208919219 cumulative IPC: 0.2393 (Simulation time: 00 hr 18 min 18 sec)
Simulation complete CPU 0 instructions: 50000004 cycles: 208919219 cumulative IPC: 0.2393 (Simulation time: 00 hr 18 min 18 sec)

ChampSim completed all CPUs

=== Simulation ===
CPU 0 runs traces/605.mcf_s-1536B.champsimtrace.xz

Region of Interest Statistics

CPU 0 cumulative IPC: 0.2393 instructions: 50000004 cycles: 208919219
CPU 0 Branch Prediction Accuracy: 99.97% MPKI: 0.04406 Average ROB Occupancy at Mispredict: 176.2
Branch type MPKI
BRANCH_DIRECT_JUMP: 0
BRANCH_INDIRECT: 0
BRANCH_CONDITIONAL: 0.04406
BRANCH_DIRECT_CALL: 0
BRANCH_INDIRECT_CALL: 0
BRANCH_RETURN: 0

cpu0->cpu0_STLB TOTAL        ACCESS:    1310392 HIT:     188956 MISS:    1121436 MSHR_MERGE:          0
cpu0->cpu0_STLB LOAD         ACCESS:    1310392 HIT:     188956 MISS:    1121436 MSHR_MERGE:          0
cpu0->cpu0_STLB RFO          ACCESS:          0 HIT:          0 MISS:          0 MSHR_MERGE:          0
cpu0->cpu0_STLB PREFETCH     ACCESS:          0 HIT:          0 MISS:          0 MSHR_MERGE:          0
cpu0->cpu0_STLB WRITE        ACCESS:          0 HIT:          0 MISS:          0 MSHR_MERGE:          0
cpu0->cpu0_STLB TRANSLATION  ACCESS:          0 HIT:          0 MISS:          0 MSHR_MERGE:          0
cpu0->cpu0_STLB PREFETCH REQUESTED:          0 ISSUED:          0 USEFUL:          0 USELESS:          0
cpu0->cpu0_STLB AVERAGE MISS LATENCY: 90.39 cycles
cpu0->cpu0_L2C TOTAL        ACCESS:    5939485 HIT:    1218451 MISS:    4721034 MSHR_MERGE:          0
cpu0->cpu0_L2C LOAD         ACCESS:    2443172 HIT:     638628 MISS:    1804544 MSHR_MERGE:          0
cpu0->cpu0_L2C RFO          ACCESS:     143253 HIT:       4619 MISS:     138634 MSHR_MERGE:          0
cpu0->cpu0_L2C PREFETCH     ACCESS:          0 HIT:          0 MISS:          0 MSHR_MERGE:          0
cpu0->cpu0_L2C WRITE        ACCESS:    1113258 HIT:     507126 MISS:     606132 MSHR_MERGE:          0
cpu0->cpu0_L2C TRANSLATION  ACCESS:    2239802 HIT:      68078 MISS:    2171724 MSHR_MERGE:          0
cpu0->cpu0_L2C PREFETCH REQUESTED:          0 ISSUED:          0 USEFUL:          0 USELESS:          0
cpu0->cpu0_L2C AVERAGE MISS LATENCY: 78.96 cycles
cpu0->cpu0_L1I TOTAL        ACCESS:   11138452 HIT:   11138452 MISS:          0 MSHR_MERGE:          0
cpu0->cpu0_L1I LOAD         ACCESS:   11138452 HIT:   11138452 MISS:          0 MSHR_MERGE:          0
cpu0->cpu0_L1I RFO          ACCESS:          0 HIT:          0 MISS:          0 MSHR_MERGE:          0
cpu0->cpu0_L1I PREFETCH     ACCESS:          0 HIT:          0 MISS:          0 MSHR_MERGE:          0
cpu0->cpu0_L1I WRITE        ACCESS:          0 HIT:          0 MISS:          0 MSHR_MERGE:          0
cpu0->cpu0_L1I TRANSLATION  ACCESS:          0 HIT:          0 MISS:          0 MSHR_MERGE:          0
cpu0->cpu0_L1I PREFETCH REQUESTED:          0 ISSUED:          0 USEFUL:          0 USELESS:          0
cpu0->cpu0_L1I AVERAGE MISS LATENCY: - cycles
cpu0->cpu0_L1D TOTAL        ACCESS:   14608891 HIT:    8097062 MISS:    6511829 MSHR_MERGE:    1685580
cpu0->cpu0_L1D LOAD         ACCESS:    9982649 HIT:    5870807 MISS:    4111842 MSHR_MERGE:    1668670
cpu0->cpu0_L1D RFO          ACCESS:          0 HIT:          0 MISS:          0 MSHR_MERGE:          0
cpu0->cpu0_L1D PREFETCH     ACCESS:          0 HIT:          0 MISS:          0 MSHR_MERGE:          0
cpu0->cpu0_L1D WRITE        ACCESS:    2217254 HIT:    2073921 MISS:     143333 MSHR_MERGE:         59
cpu0->cpu0_L1D TRANSLATION  ACCESS:    2408988 HIT:     152334 MISS:    2256654 MSHR_MERGE:      16851
cpu0->cpu0_L1D PREFETCH REQUESTED:          0 ISSUED:          0 USEFUL:          0 USELESS:          0
cpu0->cpu0_L1D AVERAGE MISS LATENCY: 85.7 cycles
cpu0->cpu0_ITLB TOTAL        ACCESS:    9987110 HIT:    9987110 MISS:          0 MSHR_MERGE:          0
cpu0->cpu0_ITLB LOAD         ACCESS:    9987110 HIT:    9987110 MISS:          0 MSHR_MERGE:          0
cpu0->cpu0_ITLB RFO          ACCESS:          0 HIT:          0 MISS:          0 MSHR_MERGE:          0
cpu0->cpu0_ITLB PREFETCH     ACCESS:          0 HIT:          0 MISS:          0 MSHR_MERGE:          0
cpu0->cpu0_ITLB WRITE        ACCESS:          0 HIT:          0 MISS:          0 MSHR_MERGE:          0
cpu0->cpu0_ITLB TRANSLATION  ACCESS:          0 HIT:          0 MISS:          0 MSHR_MERGE:          0
cpu0->cpu0_ITLB PREFETCH REQUESTED:          0 ISSUED:          0 USEFUL:          0 USELESS:          0
cpu0->cpu0_ITLB AVERAGE MISS LATENCY: - cycles
cpu0->cpu0_DTLB TOTAL        ACCESS:   12117876 HIT:    8803742 MISS:    3314134 MSHR_MERGE:    2003742
cpu0->cpu0_DTLB LOAD         ACCESS:   12117876 HIT:    8803742 MISS:    3314134 MSHR_MERGE:    2003742
cpu0->cpu0_DTLB RFO          ACCESS:          0 HIT:          0 MISS:          0 MSHR_MERGE:          0
cpu0->cpu0_DTLB PREFETCH     ACCESS:          0 HIT:          0 MISS:          0 MSHR_MERGE:          0
cpu0->cpu0_DTLB WRITE        ACCESS:          0 HIT:          0 MISS:          0 MSHR_MERGE:          0
cpu0->cpu0_DTLB TRANSLATION  ACCESS:          0 HIT:          0 MISS:          0 MSHR_MERGE:          0
cpu0->cpu0_DTLB PREFETCH REQUESTED:          0 ISSUED:          0 USEFUL:          0 USELESS:          0
cpu0->cpu0_DTLB AVERAGE MISS LATENCY: 83.21 cycles
cpu0->LLC TOTAL        ACCESS:    5223716 HIT:    3692791 MISS:    1530925 MSHR_MERGE:          0
cpu0->LLC LOAD         ACCESS:    1804544 HIT:     532110 MISS:    1272434 MSHR_MERGE:          0
cpu0->LLC RFO          ACCESS:     138634 HIT:     138602 MISS:         32 MSHR_MERGE:          0
cpu0->LLC PREFETCH     ACCESS:          0 HIT:          0 MISS:          0 MSHR_MERGE:          0
cpu0->LLC WRITE        ACCESS:    1108814 HIT:     948893 MISS:     159921 MSHR_MERGE:          0
cpu0->LLC TRANSLATION  ACCESS:    2171724 HIT:    2073186 MISS:      98538 MSHR_MERGE:          0
cpu0->LLC PREFETCH REQUESTED:          0 ISSUED:          0 USEFUL:          0 USELESS:          0
cpu0->LLC AVERAGE MISS LATENCY: 201.6 cycles

DRAM Statistics

Channel 0 RQ ROW_BUFFER_HIT:        475
  ROW_BUFFER_MISS:    1370529
  AVG DBUS CONGESTED CYCLE: 5.883
Channel 0 WQ ROW_BUFFER_HIT:     361924
  ROW_BUFFER_MISS:     746583
  FULL:          0
Channel 0 REFRESHES ISSUED:      17410
