[VMEM] WARNING: physical memory size is smaller than virtual memory size.

*** ChampSim Multicore Out-of-Order Simulator ***
Warmup Instructions: 10000000
Simulation Instructions: 50000000
Number of CPUs: 1
Page size: 4096

Off-chip DRAM Size: 16 GiB Channels: 1 Width: 64-bit Data Rate: 3205 MT/s
Heartbeat CPU 0 instructions: 10000001 cycles: 2561468 heartbeat IPC: 3.904 cumulative IPC: 3.904 (Simulation time: 00 hr 00 min 20 sec)
Warmup finished CPU 0 instructions: 10000001 cycles: 2561468 cumulative IPC: 3.904 (Simulation time: 00 hr 00 min 20 sec)
Warmup complete CPU 0 instructions: 10000001 cycles: 2561468 cumulative IPC: 3.904 (Simulation time: 00 hr 00 min 20 sec)
Heartbeat CPU 0 instructions: 20000002 cycles: 9852214 heartbeat IPC: 1.372 cumulative IPC: 1.372 (Simulation time: 00 hr 00 min 51 sec)
Heartbeat CPU 0 instructions: 30000002 cycles: 17223158 heartbeat IPC: 1.357 cumulative IPC: 1.364 (Simulation time: 00 hr 01 min 23 sec)
Heartbeat CPU 0 instructions: 40000003 cycles: 24517519 heartbeat IPC: 1.371 cumulative IPC: 1.366 (Simulation time: 00 hr 01 min 55 sec)
Heartbeat CPU 0 instructions: 50000003 cycles: 31891565 heartbeat IPC: 1.356 cumulative IPC: 1.364 (Simulation time: 00 hr 02 min 27 sec)
Simulation finished CPU 0 instructions: 50000000 cycles: 36764539 cumulative IPC: 1.36 (Simulation time: 00 hr 02 min 59 sec)
Simulation complete CPU 0 instructions: 50000000 cycles: 36764539 cumulative IPC: 1.36 (Simulation time: 00 hr 02 min 59 sec)

ChampSim completed all CPUs

=== Simulation ===
CPU 0 runs traces/644.nab_s-12459B.champsimtrace.xz

Region of Interest Statistics

CPU 0 cumulative IPC: 1.36 instructions: 50000000 cycles: 36764539
CPU 0 Branch Prediction Accuracy: 90.93% MPKI: 12.97 Average ROB Occupancy at Mispredict: 41.28
Branch type MPKI
BRANCH_DIRECT_JUMP: 0.2759
BRANCH_INDIRECT: 0
BRANCH_CONDITIONAL: 12.69
BRANCH_DIRECT_CALL: 0
BRANCH_INDIRECT_CALL: 0
BRANCH_RETURN: 0

cpu0->cpu0_STLB TOTAL        ACCESS:      11013 HIT:      10873 MISS:        140 MSHR_MERGE:          0
cpu0->cpu0_STLB LOAD         ACCESS:      11013 HIT:      10873 MISS:        140 MSHR_MERGE:          0
cpu0->cpu0_STLB RFO          ACCESS:          0 HIT:          0 MISS:          0 MSHR_MERGE:          0
cpu0->cpu0_STLB PREFETCH     ACCESS:          0 HIT:          0 MISS:          0 MSHR_MERGE:          0
cpu0->cpu0_STLB WRITE        ACCESS:          0 HIT:          0 MISS:          0 MSHR_MERGE:          0
cpu0->cpu0_STLB TRANSLATION  ACCESS:          0 HIT:          0 MISS:          0 MSHR_MERGE:          0
cpu0->cpu0_STLB PREFETCH REQUESTED:          0 ISSUED:          0 USEFUL:          0 USELESS:          0
cpu0->cpu0_STLB AVERAGE MISS LATENCY: 681 cycles
cpu0->cpu0_L2C TOTAL        ACCESS:     332655 HIT:     244780 MISS:      87875 MSHR_MERGE:          0
cpu0->cpu0_L2C LOAD         ACCESS:     291488 HIT:     213016 MISS:      78472 MSHR_MERGE:          0
cpu0->cpu0_L2C RFO          ACCESS:      16370 HIT:       8688 MISS:       7682 MSHR_MERGE:          0
cpu0->cpu0_L2C PREFETCH     ACCESS:          0 HIT:          0 MISS:          0 MSHR_MERGE:          0
cpu0->cpu0_L2C WRITE        ACCESS:      24576 HIT:      23070 MISS:       1506 MSHR_MERGE:          0
cpu0->cpu0_L2C TRANSLATION  ACCESS:        221 HIT:          6 MISS:        215 MSHR_MERGE:          0
cpu0->cpu0_L2C PREFETCH REQUESTED:          0 ISSUED:          0 USEFUL:          0 USELESS:          0
cpu0->cpu0_L2C AVERAGE MISS LATENCY: 31.8 cycles
cpu0->cpu0_L1I TOTAL        ACCESS:     126939 HIT:     126939 MISS:          0 MSHR_MERGE:          0
cpu0->cpu0_L1I LOAD         ACCESS:     126939 HIT:     126939 MISS:          0 MSHR_MERGE:          0
cpu0->cpu0_L1I RFO          ACCESS:          0 HIT:          0 MISS:          0 MSHR_MERGE:          0
cpu0->cpu0_L1I PREFETCH     ACCESS:          0 HIT:          0 MISS:          0 MSHR_MERGE:          0
cpu0->cpu0_L1I WRITE        ACCESS:          0 HIT:          0 MISS:          0 MSHR_MERGE:          0
cpu0->cpu0_L1I TRANSLATION  ACCESS:          0 HIT:          0 MISS:          0 MSHR_MERGE:          0
cpu0->cpu0_L1I PREFETCH REQUESTED:          0 ISSUED:          0 USEFUL:          0 USELESS:          0
cpu0->cpu0_L1I AVERAGE MISS LATENCY: - cycles
cpu0->cpu0_L1D TOTAL        ACCESS:   13954865 HIT:   13468632 MISS:     486233 MSHR_MERGE:     178154
cpu0->cpu0_L1D LOAD         ACCESS:    8948609 HIT:    8595891 MISS:     352718 MSHR_MERGE:      61230
cpu0->cpu0_L1D RFO          ACCESS:          0 HIT:          0 MISS:          0 MSHR_MERGE:          0
cpu0->cpu0_L1D PREFETCH     ACCESS:          0 HIT:          0 MISS:          0 MSHR_MERGE:          0
cpu0->cpu0_L1D WRITE        ACCESS:    5005976 HIT:    4872686 MISS:     133290 MSHR_MERGE:     116920
cpu0->cpu0_L1D TRANSLATION  ACCESS:        280 HIT:         55 MISS:        225 MSHR_MERGE:          4
cpu0->cpu0_L1D PREFETCH REQUESTED:          0 ISSUED:          0 USEFUL:          0 USELESS:          0
cpu0->cpu0_L1D AVERAGE MISS LATENCY: 17.34 cycles
cpu0->cpu0_ITLB TOTAL        ACCESS:     109640 HIT:     109640 MISS:          0 MSHR_MERGE:          0
cpu0->cpu0_ITLB LOAD         ACCESS:     109640 HIT:     109640 MISS:          0 MSHR_MERGE:          0
cpu0->cpu0_ITLB RFO          ACCESS:          0 HIT:          0 MISS:          0 MSHR_MERGE:          0
cpu0->cpu0_ITLB PREFETCH     ACCESS:          0 HIT:          0 MISS:          0 MSHR_MERGE:          0
cpu0->cpu0_ITLB WRITE        ACCESS:          0 HIT:          0 MISS:          0 MSHR_MERGE:          0
cpu0->cpu0_ITLB TRANSLATION  ACCESS:          0 HIT:          0 MISS:          0 MSHR_MERGE:          0
cpu0->cpu0_ITLB PREFETCH REQUESTED:          0 ISSUED:          0 USEFUL:          0 USELESS:          0
cpu0->cpu0_ITLB AVERAGE MISS LATENCY: - cycles
cpu0->cpu0_DTLB TOTAL        ACCESS:   13450335 HIT:   13436042 MISS:      14293 MSHR_MERGE:       3280
cpu0->cpu0_DTLB LOAD         ACCESS:   13450335 HIT:   13436042 MISS:      14293 MSHR_MERGE:       3280
cpu0->cpu0_DTLB RFO          ACCESS:          0 HIT:          0 MISS:          0 MSHR_MERGE:          0
cpu0->cpu0_DTLB PREFETCH     ACCESS:          0 HIT:          0 MISS:          0 MSHR_MERGE:          0
cpu0->cpu0_DTLB WRITE        ACCESS:          0 HIT:          0 MISS:          0 MSHR_MERGE:          0
cpu0->cpu0_DTLB TRANSLATION  ACCESS:          0 HIT:          0 MISS:          0 MSHR_MERGE:          0
cpu0->cpu0_DTLB PREFETCH REQUESTED:          0 ISSUED:          0 USEFUL:          0 USELESS:          0
cpu0->cpu0_DTLB AVERAGE MISS LATENCY: 13.67 cycles
cpu0->LLC TOTAL        ACCESS:      92292 HIT:      82894 MISS:       9398 MSHR_MERGE:          0
cpu0->LLC LOAD         ACCESS:      78472 HIT:      76835 MISS:       1637 MSHR_MERGE:          0
cpu0->LLC RFO          ACCESS:       7682 HIT:        108 MISS:       7574 MSHR_MERGE:          0
cpu0->LLC PREFETCH     ACCESS:          0 HIT:          0 MISS:          0 MSHR_MERGE:          0
cpu0->LLC WRITE        ACCESS:       5923 HIT:       5923 MISS:          0 MSHR_MERGE:          0
cpu0->LLC TRANSLATION  ACCESS:        215 HIT:         28 MISS:        187 MSHR_MERGE:          0
cpu0->LLC PREFETCH REQUESTED:          0 ISSUED:          0 USEFUL:          0 USELESS:          0
cpu0->LLC AVERAGE MISS LATENCY: 157.9 cycles

DRAM Statistics

Channel 0 RQ ROW_BUFFER_HIT:       2569
  ROW_BUFFER_MISS:       6829
  AVG DBUS CONGESTED CYCLE: 2.66
Channel 0 WQ ROW_BUFFER_HIT:          0
  ROW_BUFFER_MISS:          2
  FULL:          0
Channel 0 REFRESHES ISSUED:       3064
