[VMEM] WARNING: physical memory size is smaller than virtual memory size.

*** ChampSim Multicore Out-of-Order Simulator ***
Warmup Instructions: 10000000
Simulation Instructions: 50000000
Number of CPUs: 1
Page size: 4096

Off-chip DRAM Size: 16 GiB Channels: 1 Width: 64-bit Data Rate: 3205 MT/s
Heartbeat CPU 0 instructions: 10000002 cycles: 2820501 heartbeat IPC: 3.545 cumulative IPC: 3.545 (Simulation time: 00 hr 00 min 20 sec)
Warmup finished CPU 0 instructions: 10000002 cycles: 2820501 cumulative IPC: 3.545 (Simulation time: 00 hr 00 min 20 sec)
Warmup complete CPU 0 instructions: 10000002 cycles: 2820501 cumulative IPC: 3.545 (Simulation time: 00 hr 00 min 20 sec)
Heartbeat CPU 0 instructions: 20000003 cycles: 11090183 heartbeat IPC: 1.209 cumulative IPC: 1.209 (Simulation time: 00 hr 00 min 59 sec)
Heartbeat CPU 0 instructions: 30000007 cycles: 19385918 heartbeat IPC: 1.205 cumulative IPC: 1.207 (Simulation time: 00 hr 01 min 39 sec)
Heartbeat CPU 0 instructions: 40000011 cycles: 27654929 heartbeat IPC: 1.209 cumulative IPC: 1.208 (Simulation time: 00 hr 02 min 18 sec)
Heartbeat CPU 0 instructions: 50000015 cycles: 35681859 heartbeat IPC: 1.246 cumulative IPC: 1.217 (Simulation time: 00 hr 02 min 57 sec)
Simulation finished CPU 0 instructions: 50000004 cycles: 40879298 cumulative IPC: 1.223 (Simulation time: 00 hr 03 min 35 sec)
Simulation complete CPU 0 instructions: 50000004 cycles: 40879298 cumulative IPC: 1.223 (Simulation time: 00 hr 03 min 35 sec)

ChampSim completed all CPUs

=== Simulation ===
CPU 0 runs traces/628.pop2_s-17B.champsimtrace.xz

Region of Interest Statistics

CPU 0 cumulative IPC: 1.223 instructions: 50000004 cycles: 40879298
CPU 0 Branch Prediction Accuracy: 96.69% MPKI: 3.79 Average ROB Occupancy at Mispredict: 92.2
Branch type MPKI
BRANCH_DIRECT_JUMP: 0.05126
BRANCH_INDIRECT: 0.00164
BRANCH_CONDITIONAL: 3.737
BRANCH_DIRECT_CALL: 0
BRANCH_INDIRECT_CALL: 0
BRANCH_RETURN: 0

cpu0->cpu0_STLB TOTAL        ACCESS:      44008 HIT:      41543 MISS:       2465 MSHR_MERGE:          0
cpu0->cpu0_STLB LOAD         ACCESS:      44008 HIT:      41543 MISS:       2465 MSHR_MERGE:          0
cpu0->cpu0_STLB RFO          ACCESS:          0 HIT:          0 MISS:          0 MSHR_MERGE:          0
cpu0->cpu0_STLB PREFETCH     ACCESS:          0 HIT:          0 MISS:          0 MSHR_MERGE:          0
cpu0->cpu0_STLB WRITE        ACCESS:          0 HIT:          0 MISS:          0 MSHR_MERGE:          0
cpu0->cpu0_STLB TRANSLATION  ACCESS:          0 HIT:          0 MISS:          0 MSHR_MERGE:          0
cpu0->cpu0_STLB PREFETCH REQUESTED:          0 ISSUED:          0 USEFUL:          0 USELESS:          0
cpu0->cpu0_STLB AVERAGE MISS LATENCY: 737.9 cycles
cpu0->cpu0_L2C TOTAL        ACCESS:    1496597 HIT:    1026936 MISS:     469661 MSHR_MERGE:          0
cpu0->cpu0_L2C LOAD         ACCESS:     812710 HIT:     413924 MISS:     398786 MSHR_MERGE:          0
cpu0->cpu0_L2C RFO          ACCESS:     273744 HIT:     240283 MISS:      33461 MSHR_MERGE:          0
cpu0->cpu0_L2C PREFETCH     ACCESS:          0 HIT:          0 MISS:          0 MSHR_MERGE:          0
cpu0->cpu0_L2C WRITE        ACCESS:     404914 HIT:     372624 MISS:      32290 MSHR_MERGE:          0
cpu0->cpu0_L2C TRANSLATION  ACCESS:       5229 HIT:        105 MISS:       5124 MSHR_MERGE:          0
cpu0->cpu0_L2C PREFETCH REQUESTED:          0 ISSUED:          0 USEFUL:          0 USELESS:          0
cpu0->cpu0_L2C AVERAGE MISS LATENCY: 77.02 cycles
cpu0->cpu0_L1I TOTAL        ACCESS:    3850789 HIT:    3740823 MISS:     109966 MSHR_MERGE:      50837
cpu0->cpu0_L1I LOAD         ACCESS:    3850789 HIT:    3740823 MISS:     109966 MSHR_MERGE:      50837
cpu0->cpu0_L1I RFO          ACCESS:          0 HIT:          0 MISS:          0 MSHR_MERGE:          0
cpu0->cpu0_L1I PREFETCH     ACCESS:          0 HIT:          0 MISS:          0 MSHR_MERGE:          0
cpu0->cpu0_L1I WRITE        ACCESS:          0 HIT:          0 MISS:          0 MSHR_MERGE:          0
cpu0->cpu0_L1I TRANSLATION  ACCESS:          0 HIT:          0 MISS:          0 MSHR_MERGE:          0
cpu0->cpu0_L1I PREFETCH REQUESTED:          0 ISSUED:          0 USEFUL:          0 USELESS:          0
cpu0->cpu0_L1I AVERAGE MISS LATENCY: 22.26 cycles
cpu0->cpu0_L1D TOTAL        ACCESS:   13018189 HIT:   10722239 MISS:    2295950 MSHR_MERGE:    1263391
cpu0->cpu0_L1D LOAD         ACCESS:    9224904 HIT:    7789377 MISS:    1435527 MSHR_MERGE:     681942
cpu0->cpu0_L1D RFO          ACCESS:          0 HIT:          0 MISS:          0 MSHR_MERGE:          0
cpu0->cpu0_L1D PREFETCH     ACCESS:          0 HIT:          0 MISS:          0 MSHR_MERGE:          0
cpu0->cpu0_L1D WRITE        ACCESS:    3787527 HIT:    2932483 MISS:     855044 MSHR_MERGE:     581299
cpu0->cpu0_L1D TRANSLATION  ACCESS:       5758 HIT:        379 MISS:       5379 MSHR_MERGE:        150
cpu0->cpu0_L1D PREFETCH REQUESTED:          0 ISSUED:          0 USEFUL:          0 USELESS:          0
cpu0->cpu0_L1D AVERAGE MISS LATENCY: 42.53 cycles
cpu0->cpu0_ITLB TOTAL        ACCESS:    3138817 HIT:    3132559 MISS:       6258 MSHR_MERGE:       3779
cpu0->cpu0_ITLB LOAD         ACCESS:    3138817 HIT:    3132559 MISS:       6258 MSHR_MERGE:       3779
cpu0->cpu0_ITLB RFO          ACCESS:          0 HIT:          0 MISS:          0 MSHR_MERGE:          0
cpu0->cpu0_ITLB PREFETCH     ACCESS:          0 HIT:          0 MISS:          0 MSHR_MERGE:          0
cpu0->cpu0_ITLB WRITE        ACCESS:          0 HIT:          0 MISS:          0 MSHR_MERGE:          0
cpu0->cpu0_ITLB TRANSLATION  ACCESS:          0 HIT:          0 MISS:          0 MSHR_MERGE:          0
cpu0->cpu0_ITLB PREFETCH REQUESTED:          0 ISSUED:          0 USEFUL:          0 USELESS:          0
cpu0->cpu0_ITLB AVERAGE MISS LATENCY: 5 cycles
cpu0->cpu0_DTLB TOTAL        ACCESS:   12527402 HIT:   12456071 MISS:      71331 MSHR_MERGE:      29802
cpu0->cpu0_DTLB LOAD         ACCESS:   12527402 HIT:   12456071 MISS:      71331 MSHR_MERGE:      29802
cpu0->cpu0_DTLB RFO          ACCESS:          0 HIT:          0 MISS:          0 MSHR_MERGE:          0
cpu0->cpu0_DTLB PREFETCH     ACCESS:          0 HIT:          0 MISS:          0 MSHR_MERGE:          0
cpu0->cpu0_DTLB WRITE        ACCESS:          0 HIT:          0 MISS:          0 MSHR_MERGE:          0
cpu0->cpu0_DTLB TRANSLATION  ACCESS:          0 HIT:          0 MISS:          0 MSHR_MERGE:          0
cpu0->cpu0_DTLB PREFETCH REQUESTED:          0 ISSUED:          0 USEFUL:          0 USELESS:          0
cpu0->cpu0_DTLB AVERAGE MISS LATENCY: 48.86 cycles
cpu0->LLC TOTAL        ACCESS:     512953 HIT:     356146 MISS:     156807 MSHR_MERGE:          0
cpu0->LLC LOAD         ACCESS:     398786 HIT:     259407 MISS:     139379 MSHR_MERGE:          0
cpu0->LLC RFO          ACCESS:      33461 HIT:      22614 MISS:      10847 MSHR_MERGE:          0
cpu0->LLC PREFETCH     ACCESS:          0 HIT:          0 MISS:          0 MSHR_MERGE:          0
cpu0->LLC WRITE        ACCESS:      75582 HIT:      72481 MISS:       3101 MSHR_MERGE:          0
cpu0->LLC TRANSLATION  ACCESS:       5124 HIT:       1644 MISS:       3480 MSHR_MERGE:          0
cpu0->LLC PREFETCH REQUESTED:          0 ISSUED:          0 USEFUL:          0 USELESS:          0
cpu0->LLC AVERAGE MISS LATENCY: 187.2 cycles

DRAM Statistics

Channel 0 RQ ROW_BUFFER_HIT:       4016
  ROW_BUFFER_MISS:     149689
  AVG DBUS CONGESTED CYCLE: 15.61
Channel 0 WQ ROW_BUFFER_HIT:      12427
  ROW_BUFFER_MISS:      34427
  FULL:          0
Channel 0 REFRESHES ISSUED:       3406
