[VMEM] WARNING: physical memory size is smaller than virtual memory size.

*** ChampSim Multicore Out-of-Order Simulator ***
Warmup Instructions: 10000000
Simulation Instructions: 50000000
Number of CPUs: 1
Page size: 4096

Off-chip DRAM Size: 16 GiB Channels: 1 Width: 64-bit Data Rate: 3205 MT/s
Heartbeat CPU 0 instructions: 10000003 cycles: 2555766 heartbeat IPC: 3.913 cumulative IPC: 3.913 (Simulation time: 00 hr 00 min 17 sec)
Warmup finished CPU 0 instructions: 10000003 cycles: 2555766 cumulative IPC: 3.913 (Simulation time: 00 hr 00 min 17 sec)
Warmup complete CPU 0 instructions: 10000003 cycles: 2555766 cumulative IPC: 3.913 (Simulation time: 00 hr 00 min 17 sec)
Heartbeat CPU 0 instructions: 20000004 cycles: 5544729 heartbeat IPC: 3.346 cumulative IPC: 3.346 (Simulation time: 00 hr 00 min 36 sec)
Heartbeat CPU 0 instructions: 30000005 cycles: 8535069 heartbeat IPC: 3.344 cumulative IPC: 3.345 (Simulation time: 00 hr 00 min 56 sec)
Heartbeat CPU 0 instructions: 40000007 cycles: 11526135 heartbeat IPC: 3.343 cumulative IPC: 3.344 (Simulation time: 00 hr 01 min 15 sec)
Heartbeat CPU 0 instructions: 50000007 cycles: 14520155 heartbeat IPC: 3.34 cumulative IPC: 3.343 (Simulation time: 00 hr 01 min 34 sec)
Simulation finished CPU 0 instructions: 50000002 cycles: 14967559 cumulative IPC: 3.341 (Simulation time: 00 hr 01 min 54 sec)
Simulation complete CPU 0 instructions: 50000002 cycles: 14967559 cumulative IPC: 3.341 (Simulation time: 00 hr 01 min 54 sec)

ChampSim completed all CPUs

=== Simulation ===
CPU 0 runs traces/638.imagick_s-10316B.champsimtrace.xz

Region of Interest Statistics

CPU 0 cumulative IPC: 3.341 instructions: 50000002 cycles: 14967559
CPU 0 Branch Prediction Accuracy: 99.7% MPKI: 0.3128 Average ROB Occupancy at Mispredict: 348.5
Branch type MPKI
BRANCH_DIRECT_JUMP: 2e-05
BRANCH_INDIRECT: 0
BRANCH_CONDITIONAL: 0.3128
BRANCH_DIRECT_CALL: 0
BRANCH_INDIRECT_CALL: 0
BRANCH_RETURN: 0

cpu0->cpu0_STLB TOTAL        ACCESS:      23197 HIT:      23166 MISS:         31 MSHR_MERGE:          0
cpu0->cpu0_STLB LOAD         ACCESS:      23197 HIT:      23166 MISS:         31 MSHR_MERGE:          0
cpu0->cpu0_STLB RFO          ACCESS:          0 HIT:          0 MISS:          0 MSHR_MERGE:          0
cpu0->cpu0_STLB PREFETCH     ACCESS:          0 HIT:          0 MISS:          0 MSHR_MERGE:          0
cpu0->cpu0_STLB WRITE        ACCESS:          0 HIT:          0 MISS:          0 MSHR_MERGE:          0
cpu0->cpu0_STLB TRANSLATION  ACCESS:          0 HIT:          0 MISS:          0 MSHR_MERGE:          0
cpu0->cpu0_STLB PREFETCH REQUESTED:          0 ISSUED:          0 USEFUL:          0 USELESS:          0
cpu0->cpu0_STLB AVERAGE MISS LATENCY: 754.2 cycles
cpu0->cpu0_L2C TOTAL        ACCESS:     445773 HIT:     442286 MISS:       3487 MSHR_MERGE:          0
cpu0->cpu0_L2C LOAD         ACCESS:     444702 HIT:     441293 MISS:       3409 MSHR_MERGE:          0
cpu0->cpu0_L2C RFO          ACCESS:        295 HIT:        278 MISS:         17 MSHR_MERGE:          0
cpu0->cpu0_L2C PREFETCH     ACCESS:          0 HIT:          0 MISS:          0 MSHR_MERGE:          0
cpu0->cpu0_L2C WRITE        ACCESS:        714 HIT:        714 MISS:          0 MSHR_MERGE:          0
cpu0->cpu0_L2C TRANSLATION  ACCESS:         62 HIT:          1 MISS:         61 MSHR_MERGE:          0
cpu0->cpu0_L2C PREFETCH REQUESTED:          0 ISSUED:          0 USEFUL:          0 USELESS:          0
cpu0->cpu0_L2C AVERAGE MISS LATENCY: 103.9 cycles
cpu0->cpu0_L1I TOTAL        ACCESS:    6477144 HIT:    6477144 MISS:          0 MSHR_MERGE:          0
cpu0->cpu0_L1I LOAD         ACCESS:    6477144 HIT:    6477144 MISS:          0 MSHR_MERGE:          0
cpu0->cpu0_L1I RFO          ACCESS:          0 HIT:          0 MISS:          0 MSHR_MERGE:          0
cpu0->cpu0_L1I PREFETCH     ACCESS:          0 HIT:          0 MISS:          0 MSHR_MERGE:          0
cpu0->cpu0_L1I WRITE        ACCESS:          0 HIT:          0 MISS:          0 MSHR_MERGE:          0
cpu0->cpu0_L1I TRANSLATION  ACCESS:          0 HIT:          0 MISS:          0 MSHR_MERGE:          0
cpu0->cpu0_L1I PREFETCH REQUESTED:          0 ISSUED:          0 USEFUL:          0 USELESS:          0
cpu0->cpu0_L1I AVERAGE MISS LATENCY: - cycles
cpu0->cpu0_L1D TOTAL        ACCESS:    5581915 HIT:    4204951 MISS:    1376964 MSHR_MERGE:     931905
cpu0->cpu0_L1D LOAD         ACCESS:    5579427 HIT:    4203141 MISS:    1376286 MSHR_MERGE:     931584
cpu0->cpu0_L1D RFO          ACCESS:          0 HIT:          0 MISS:          0 MSHR_MERGE:          0
cpu0->cpu0_L1D PREFETCH     ACCESS:          0 HIT:          0 MISS:          0 MSHR_MERGE:          0
cpu0->cpu0_L1D WRITE        ACCESS:       2426 HIT:       1810 MISS:        616 MSHR_MERGE:        321
cpu0->cpu0_L1D TRANSLATION  ACCESS:         62 HIT:          0 MISS:         62 MSHR_MERGE:          0
cpu0->cpu0_L1D PREFETCH REQUESTED:          0 ISSUED:          0 USEFUL:          0 USELESS:          0
cpu0->cpu0_L1D AVERAGE MISS LATENCY: 8.823 cycles
cpu0->cpu0_ITLB TOTAL        ACCESS:    5041647 HIT:    5041647 MISS:          0 MSHR_MERGE:          0
cpu0->cpu0_ITLB LOAD         ACCESS:    5041647 HIT:    5041647 MISS:          0 MSHR_MERGE:          0
cpu0->cpu0_ITLB RFO          ACCESS:          0 HIT:          0 MISS:          0 MSHR_MERGE:          0
cpu0->cpu0_ITLB PREFETCH     ACCESS:          0 HIT:          0 MISS:          0 MSHR_MERGE:          0
cpu0->cpu0_ITLB WRITE        ACCESS:          0 HIT:          0 MISS:          0 MSHR_MERGE:          0
cpu0->cpu0_ITLB TRANSLATION  ACCESS:          0 HIT:          0 MISS:          0 MSHR_MERGE:          0
cpu0->cpu0_ITLB PREFETCH REQUESTED:          0 ISSUED:          0 USEFUL:          0 USELESS:          0
cpu0->cpu0_ITLB AVERAGE MISS LATENCY: - cycles
cpu0->cpu0_DTLB TOTAL        ACCESS:    5581499 HIT:    5490184 MISS:      91315 MSHR_MERGE:      68118
cpu0->cpu0_DTLB LOAD         ACCESS:    5581499 HIT:    5490184 MISS:      91315 MSHR_MERGE:      68118
cpu0->cpu0_DTLB RFO          ACCESS:          0 HIT:          0 MISS:          0 MSHR_MERGE:          0
cpu0->cpu0_DTLB PREFETCH     ACCESS:          0 HIT:          0 MISS:          0 MSHR_MERGE:          0
cpu0->cpu0_DTLB WRITE        ACCESS:          0 HIT:          0 MISS:          0 MSHR_MERGE:          0
cpu0->cpu0_DTLB TRANSLATION  ACCESS:          0 HIT:          0 MISS:          0 MSHR_MERGE:          0
cpu0->cpu0_DTLB PREFETCH REQUESTED:          0 ISSUED:          0 USEFUL:          0 USELESS:          0
cpu0->cpu0_DTLB AVERAGE MISS LATENCY: 6.009 cycles
cpu0->LLC TOTAL        ACCESS:       3487 HIT:       1473 MISS:       2014 MSHR_MERGE:          0
cpu0->LLC LOAD         ACCESS:       3409 HIT:       1473 MISS:       1936 MSHR_MERGE:          0
cpu0->LLC RFO          ACCESS:         17 HIT:          0 MISS:         17 MSHR_MERGE:          0
cpu0->LLC PREFETCH     ACCESS:          0 HIT:          0 MISS:          0 MSHR_MERGE:          0
cpu0->LLC WRITE        ACCESS:          0 HIT:          0 MISS:          0 MSHR_MERGE:          0
cpu0->LLC TRANSLATION  ACCESS:         61 HIT:          0 MISS:         61 MSHR_MERGE:          0
cpu0->LLC PREFETCH REQUESTED:          0 ISSUED:          0 USEFUL:          0 USELESS:          0
cpu0->LLC AVERAGE MISS LATENCY: 153 cycles

DRAM Statistics

Channel 0 RQ ROW_BUFFER_HIT:          0
  ROW_BUFFER_MISS:       2014
  AVG DBUS CONGESTED CYCLE: -
Channel 0 WQ ROW_BUFFER_HIT:          0
  ROW_BUFFER_MISS:          0
  FULL:          0
Channel 0 REFRESHES ISSUED:       1248
