[VMEM] WARNING: physical memory size is smaller than virtual memory size.

*** ChampSim Multicore Out-of-Order Simulator ***
Warmup Instructions: 10000000
Simulation Instructions: 50000000
Number of CPUs: 1
Page size: 4096

Off-chip DRAM Size: 16 GiB Channels: 1 Width: 64-bit Data Rate: 3205 MT/s
Heartbeat CPU 0 instructions: 10000002 cycles: 2777229 heartbeat IPC: 3.601 cumulative IPC: 3.601 (Simulation time: 00 hr 00 min 21 sec)
Warmup finished CPU 0 instructions: 10000002 cycles: 2777229 cumulative IPC: 3.601 (Simulation time: 00 hr 00 min 21 sec)
Warmup complete CPU 0 instructions: 10000002 cycles: 2777229 cumulative IPC: 3.601 (Simulation time: 00 hr 00 min 21 sec)
Heartbeat CPU 0 instructions: 20000005 cycles: 11648026 heartbeat IPC: 1.127 cumulative IPC: 1.127 (Simulation time: 00 hr 01 min 15 sec)
Heartbeat CPU 0 instructions: 30000007 cycles: 18573210 heartbeat IPC: 1.444 cumulative IPC: 1.266 (Simulation time: 00 hr 02 min 00 sec)
Heartbeat CPU 0 instructions: 40000010 cycles: 27421384 heartbeat IPC: 1.13 cumulative IPC: 1.217 (Simulation time: 00 hr 02 min 55 sec)
Heartbeat CPU 0 instructions: 50000011 cycles: 34194974 heartbeat IPC: 1.476 cumulative IPC: 1.273 (Simulation time: 00 hr 03 min 39 sec)
Simulation finished CPU 0 instructions: 50000001 cycles: 40202525 cumulative IPC: 1.244 (Simulation time: 00 hr 04 min 34 sec)
Simulation complete CPU 0 instructions: 50000001 cycles: 40202525 cumulative IPC: 1.244 (Simulation time: 00 hr 04 min 34 sec)

ChampSim completed all CPUs

=== Simulation ===
CPU 0 runs traces/654.roms_s-293B.champsimtrace.xz

Region of Interest Statistics

CPU 0 cumulative IPC: 1.244 instructions: 50000001 cycles: 40202525
CPU 0 Branch Prediction Accuracy: 99.8% MPKI: 0.02602 Average ROB Occupancy at Mispredict: 336.7
Branch type MPKI
BRANCH_DIRECT_JUMP: 0
BRANCH_INDIRECT: 0
BRANCH_CONDITIONAL: 0.02602
BRANCH_DIRECT_CALL: 0
BRANCH_INDIRECT_CALL: 0
BRANCH_RETURN: 0

cpu0->cpu0_STLB TOTAL        ACCESS:      14294 HIT:       9254 MISS:       5040 MSHR_MERGE:          0
cpu0->cpu0_STLB LOAD         ACCESS:      14294 HIT:       9254 MISS:       5040 MSHR_MERGE:          0
cpu0->cpu0_STLB RFO          ACCESS:          0 HIT:          0 MISS:          0 MSHR_MERGE:          0
cpu0->cpu0_STLB PREFETCH     ACCESS:          0 HIT:          0 MISS:          0 MSHR_MERGE:          0
cpu0->cpu0_STLB WRITE        ACCESS:          0 HIT:          0 MISS:          0 MSHR_MERGE:          0
cpu0->cpu0_STLB TRANSLATION  ACCESS:          0 HIT:          0 MISS:          0 MSHR_MERGE:          0
cpu0->cpu0_STLB PREFETCH REQUESTED:          0 ISSUED:          0 USEFUL:          0 USELESS:          0
cpu0->cpu0_STLB AVERAGE MISS LATENCY: 887.6 cycles
cpu0->cpu0_L2C TOTAL        ACCESS:     878825 HIT:     191846 MISS:     686979 MSHR_MERGE:          0
cpu0->cpu0_L2C LOAD         ACCESS:     366106 HIT:      89063 MISS:     277043 MSHR_MERGE:          0
cpu0->cpu0_L2C RFO          ACCESS:     250788 HIT:      15189 MISS:     235599 MSHR_MERGE:          0
cpu0->cpu0_L2C PREFETCH     ACCESS:          0 HIT:          0 MISS:          0 MSHR_MERGE:          0
cpu0->cpu0_L2C WRITE        ACCESS:     251769 HIT:      87249 MISS:     164520 MSHR_MERGE:          0
cpu0->cpu0_L2C TRANSLATION  ACCESS:      10162 HIT:        345 MISS:       9817 MSHR_MERGE:          0
cpu0->cpu0_L2C PREFETCH REQUESTED:          0 ISSUED:          0 USEFUL:          0 USELESS:          0
cpu0->cpu0_L2C AVERAGE MISS LATENCY: 121.8 cycles
cpu0->cpu0_L1I TOTAL        ACCESS:   10059082 HIT:   10059082 MISS:          0 MSHR_MERGE:          0
cpu0->cpu0_L1I LOAD         ACCESS:   10059082 HIT:   10059082 MISS:          0 MSHR_MERGE:          0
cpu0->cpu0_L1I RFO          ACCESS:          0 HIT:          0 MISS:          0 MSHR_MERGE:          0
cpu0->cpu0_L1I PREFETCH     ACCESS:          0 HIT:          0 MISS:          0 MSHR_MERGE:          0
cpu0->cpu0_L1I WRITE        ACCESS:          0 HIT:          0 MISS:          0 MSHR_MERGE:          0
cpu0->cpu0_L1I TRANSLATION  ACCESS:          0 HIT:          0 MISS:          0 MSHR_MERGE:          0
cpu0->cpu0_L1I PREFETCH REQUESTED:          0 ISSUED:          0 USEFUL:          0 USELESS:          0
cpu0->cpu0_L1I AVERAGE MISS LATENCY: - cycles
cpu0->cpu0_L1D TOTAL        ACCESS:   15652638 HIT:   14175817 MISS:    1476821 MSHR_MERGE:     849716
cpu0->cpu0_L1D LOAD         ACCESS:   11015997 HIT:   10394416 MISS:     621581 MSHR_MERGE:     255474
cpu0->cpu0_L1D RFO          ACCESS:          0 HIT:          0 MISS:          0 MSHR_MERGE:          0
cpu0->cpu0_L1D PREFETCH     ACCESS:          0 HIT:          0 MISS:          0 MSHR_MERGE:          0
cpu0->cpu0_L1D WRITE        ACCESS:    4623968 HIT:    3778939 MISS:     845029 MSHR_MERGE:     594193
cpu0->cpu0_L1D TRANSLATION  ACCESS:      12673 HIT:       2462 MISS:      10211 MSHR_MERGE:         49
cpu0->cpu0_L1D PREFETCH REQUESTED:          0 ISSUED:          0 USEFUL:          0 USELESS:          0
cpu0->cpu0_L1D AVERAGE MISS LATENCY: 141.2 cycles
cpu0->cpu0_ITLB TOTAL        ACCESS:    7487938 HIT:    7487938 MISS:          0 MSHR_MERGE:          0
cpu0->cpu0_ITLB LOAD         ACCESS:    7487938 HIT:    7487938 MISS:          0 MSHR_MERGE:          0
cpu0->cpu0_ITLB RFO          ACCESS:          0 HIT:          0 MISS:          0 MSHR_MERGE:          0
cpu0->cpu0_ITLB PREFETCH     ACCESS:          0 HIT:          0 MISS:          0 MSHR_MERGE:          0
cpu0->cpu0_ITLB WRITE        ACCESS:          0 HIT:          0 MISS:          0 MSHR_MERGE:          0
cpu0->cpu0_ITLB TRANSLATION  ACCESS:          0 HIT:          0 MISS:          0 MSHR_MERGE:          0
cpu0->cpu0_ITLB PREFETCH REQUESTED:          0 ISSUED:          0 USEFUL:          0 USELESS:          0
cpu0->cpu0_ITLB AVERAGE MISS LATENCY: - cycles
cpu0->cpu0_DTLB TOTAL        ACCESS:   14807369 HIT:   14768544 MISS:      38825 MSHR_MERGE:      24531
cpu0->cpu0_DTLB LOAD         ACCESS:   14807369 HIT:   14768544 MISS:      38825 MSHR_MERGE:      24531
cpu0->cpu0_DTLB RFO          ACCESS:          0 HIT:          0 MISS:          0 MSHR_MERGE:          0
cpu0->cpu0_DTLB PREFETCH     ACCESS:          0 HIT:          0 MISS:          0 MSHR_MERGE:          0
cpu0->cpu0_DTLB WRITE        ACCESS:          0 HIT:          0 MISS:          0 MSHR_MERGE:          0
cpu0->cpu0_DTLB TRANSLATION  ACCESS:          0 HIT:          0 MISS:          0 MSHR_MERGE:          0
cpu0->cpu0_DTLB PREFETCH REQUESTED:          0 ISSUED:          0 USEFUL:          0 USELESS:          0
cpu0->cpu0_DTLB AVERAGE MISS LATENCY: 318.3 cycles
cpu0->LLC TOTAL        ACCESS:     764539 HIT:     423166 MISS:     341373 MSHR_MERGE:          0
cpu0->LLC LOAD         ACCESS:     277043 HIT:     145675 MISS:     131368 MSHR_MERGE:          0
cpu0->LLC RFO          ACCESS:     235599 HIT:      60632 MISS:     174967 MSHR_MERGE:          0
cpu0->LLC PREFETCH     ACCESS:          0 HIT:          0 MISS:          0 MSHR_MERGE:          0
cpu0->LLC WRITE        ACCESS:     242080 HIT:     216061 MISS:      26019 MSHR_MERGE:          0
cpu0->LLC TRANSLATION  ACCESS:       9817 HIT:        798 MISS:       9019 MSHR_MERGE:          0
cpu0->LLC PREFETCH REQUESTED:          0 ISSUED:          0 USEFUL:          0 USELESS:          0
cpu0->LLC AVERAGE MISS LATENCY: 219.9 cycles

DRAM Statistics

Channel 0 RQ ROW_BUFFER_HIT:       2027
  ROW_BUFFER_MISS:     312667
  AVG DBUS CONGESTED CYCLE: 7.444
Channel 0 WQ ROW_BUFFER_HIT:      60145
  ROW_BUFFER_MISS:     142562
  FULL:          0
Channel 0 REFRESHES ISSUED:       3350
