[VMEM] WARNING: physical memory size is smaller than virtual memory size.

*** ChampSim Multicore Out-of-Order Simulator ***
Warmup Instructions: 10000000
Simulation Instructions: 50000000
Number of CPUs: 1
Page size: 4096

Off-chip DRAM Size: 16 GiB Channels: 1 Width: 64-bit Data Rate: 3205 MT/s
Heartbeat CPU 0 instructions: 10000002 cycles: 2806038 heartbeat IPC: 3.564 cumulative IPC: 3.564 (Simulation time: 00 hr 00 min 24 sec)
Warmup finished CPU 0 instructions: 10000002 cycles: 2806038 cumulative IPC: 3.564 (Simulation time: 00 hr 00 min 24 sec)
Warmup complete CPU 0 instructions: 10000002 cycles: 2806038 cumulative IPC: 3.564 (Simulation time: 00 hr 00 min 24 sec)
Heartbeat CPU 0 instructions: 20000004 cycles: 14276919 heartbeat IPC: 0.8718 cumulative IPC: 0.8718 (Simulation time: 00 hr 01 min 19 sec)
Heartbeat CPU 0 instructions: 30000005 cycles: 25834634 heartbeat IPC: 0.8652 cumulative IPC: 0.8685 (Simulation time: 00 hr 02 min 14 sec)
Heartbeat CPU 0 instructions: 40000008 cycles: 37355793 heartbeat IPC: 0.868 cumulative IPC: 0.8683 (Simulation time: 00 hr 03 min 09 sec)
Heartbeat CPU 0 instructions: 50000009 cycles: 48835160 heartbeat IPC: 0.8711 cumulative IPC: 0.869 (Simulation time: 00 hr 04 min 04 sec)
Simulation finished CPU 0 instructions: 50000003 cycles: 57569603 cumulative IPC: 0.8685 (Simulation time: 00 hr 05 min 00 sec)
Simulation complete CPU 0 instructions: 50000003 cycles: 57569603 cumulative IPC: 0.8685 (Simulation time: 00 hr 05 min 00 sec)

ChampSim completed all CPUs

=== Simulation ===
CPU 0 runs traces/603.bwaves_s-2931B.champsimtrace.xz

Region of Interest Statistics

CPU 0 cumulative IPC: 0.8685 instructions: 50000003 cycles: 57569603
CPU 0 Branch Prediction Accuracy: 80.62% MPKI: 1.636 Average ROB Occupancy at Mispredict: 296.8
Branch type MPKI
BRANCH_DIRECT_JUMP: 0
BRANCH_INDIRECT: 0
BRANCH_CONDITIONAL: 1.636
BRANCH_DIRECT_CALL: 0
BRANCH_INDIRECT_CALL: 0
BRANCH_RETURN: 0

cpu0->cpu0_STLB TOTAL        ACCESS:      85878 HIT:      75234 MISS:      10644 MSHR_MERGE:          0
cpu0->cpu0_STLB LOAD         ACCESS:      85878 HIT:      75234 MISS:      10644 MSHR_MERGE:          0
cpu0->cpu0_STLB RFO          ACCESS:          0 HIT:          0 MISS:          0 MSHR_MERGE:          0
cpu0->cpu0_STLB PREFETCH     ACCESS:          0 HIT:          0 MISS:          0 MSHR_MERGE:          0
cpu0->cpu0_STLB WRITE        ACCESS:          0 HIT:          0 MISS:          0 MSHR_MERGE:          0
cpu0->cpu0_STLB TRANSLATION  ACCESS:          0 HIT:          0 MISS:          0 MSHR_MERGE:          0
cpu0->cpu0_STLB PREFETCH REQUESTED:          0 ISSUED:          0 USEFUL:          0 USELESS:          0
cpu0->cpu0_STLB AVERAGE MISS LATENCY: 709.5 cycles
cpu0->cpu0_L2C TOTAL        ACCESS:    1173707 HIT:     230370 MISS:     943337 MSHR_MERGE:          0
cpu0->cpu0_L2C LOAD         ACCESS:     518190 HIT:      25824 MISS:     492366 MSHR_MERGE:          0
cpu0->cpu0_L2C RFO          ACCESS:     315199 HIT:      17461 MISS:     297738 MSHR_MERGE:          0
cpu0->cpu0_L2C PREFETCH     ACCESS:          0 HIT:          0 MISS:          0 MSHR_MERGE:          0
cpu0->cpu0_L2C WRITE        ACCESS:     319077 HIT:     184589 MISS:     134488 MSHR_MERGE:          0
cpu0->cpu0_L2C TRANSLATION  ACCESS:      21241 HIT:       2496 MISS:      18745 MSHR_MERGE:          0
cpu0->cpu0_L2C PREFETCH REQUESTED:          0 ISSUED:          0 USEFUL:          0 USELESS:          0
cpu0->cpu0_L2C AVERAGE MISS LATENCY: 178.5 cycles
cpu0->cpu0_L1I TOTAL        ACCESS:    5680096 HIT:    5680088 MISS:          8 MSHR_MERGE:          1
cpu0->cpu0_L1I LOAD         ACCESS:    5680096 HIT:    5680088 MISS:          8 MSHR_MERGE:          1
cpu0->cpu0_L1I RFO          ACCESS:          0 HIT:          0 MISS:          0 MSHR_MERGE:          0
cpu0->cpu0_L1I PREFETCH     ACCESS:          0 HIT:          0 MISS:          0 MSHR_MERGE:          0
cpu0->cpu0_L1I WRITE        ACCESS:          0 HIT:          0 MISS:          0 MSHR_MERGE:          0
cpu0->cpu0_L1I TRANSLATION  ACCESS:          0 HIT:          0 MISS:          0 MSHR_MERGE:          0
cpu0->cpu0_L1I PREFETCH REQUESTED:          0 ISSUED:          0 USEFUL:          0 USELESS:          0
cpu0->cpu0_L1I AVERAGE MISS LATENCY: 236.3 cycles
cpu0->cpu0_L1D TOTAL        ACCESS:   17012096 HIT:   15400890 MISS:    1611206 MSHR_MERGE:     756259
cpu0->cpu0_L1D LOAD         ACCESS:    7844455 HIT:    7319647 MISS:     524808 MSHR_MERGE:       6617
cpu0->cpu0_L1D RFO          ACCESS:          0 HIT:          0 MISS:          0 MSHR_MERGE:          0
cpu0->cpu0_L1D PREFETCH     ACCESS:          0 HIT:          0 MISS:          0 MSHR_MERGE:          0
cpu0->cpu0_L1D WRITE        ACCESS:    9146326 HIT:    8081172 MISS:    1065154 MSHR_MERGE:     749639
cpu0->cpu0_L1D TRANSLATION  ACCESS:      21315 HIT:         71 MISS:      21244 MSHR_MERGE:          3
cpu0->cpu0_L1D PREFETCH REQUESTED:          0 ISSUED:          0 USEFUL:          0 USELESS:          0
cpu0->cpu0_L1D AVERAGE MISS LATENCY: 205.3 cycles
cpu0->cpu0_ITLB TOTAL        ACCESS:    4540894 HIT:    4540894 MISS:          0 MSHR_MERGE:          0
cpu0->cpu0_ITLB LOAD         ACCESS:    4540894 HIT:    4540894 MISS:          0 MSHR_MERGE:          0
cpu0->cpu0_ITLB RFO          ACCESS:          0 HIT:          0 MISS:          0 MSHR_MERGE:          0
cpu0->cpu0_ITLB PREFETCH     ACCESS:          0 HIT:          0 MISS:          0 MSHR_MERGE:          0
cpu0->cpu0_ITLB WRITE        ACCESS:          0 HIT:          0 MISS:          0 MSHR_MERGE:          0
cpu0->cpu0_ITLB TRANSLATION  ACCESS:          0 HIT:          0 MISS:          0 MSHR_MERGE:          0
cpu0->cpu0_ITLB PREFETCH REQUESTED:          0 ISSUED:          0 USEFUL:          0 USELESS:          0
cpu0->cpu0_ITLB AVERAGE MISS LATENCY: - cycles
cpu0->cpu0_DTLB TOTAL        ACCESS:   15714718 HIT:   15618590 MISS:      96128 MSHR_MERGE:      10250
cpu0->cpu0_DTLB LOAD         ACCESS:   15714718 HIT:   15618590 MISS:      96128 MSHR_MERGE:      10250
cpu0->cpu0_DTLB RFO          ACCESS:          0 HIT:          0 MISS:          0 MSHR_MERGE:          0
cpu0->cpu0_DTLB PREFETCH     ACCESS:          0 HIT:          0 MISS:          0 MSHR_MERGE:          0
cpu0->cpu0_DTLB WRITE        ACCESS:          0 HIT:          0 MISS:          0 MSHR_MERGE:          0
cpu0->cpu0_DTLB TRANSLATION  ACCESS:          0 HIT:          0 MISS:          0 MSHR_MERGE:          0
cpu0->cpu0_DTLB PREFETCH REQUESTED:          0 ISSUED:          0 USEFUL:          0 USELESS:          0
cpu0->cpu0_DTLB AVERAGE MISS LATENCY: 93.07 cycles
cpu0->LLC TOTAL        ACCESS:    1106591 HIT:     339006 MISS:     767585 MSHR_MERGE:          0
cpu0->LLC LOAD         ACCESS:     492366 HIT:     108477 MISS:     383889 MSHR_MERGE:          0
cpu0->LLC RFO          ACCESS:     297738 HIT:         42 MISS:     297696 MSHR_MERGE:          0
cpu0->LLC PREFETCH     ACCESS:          0 HIT:          0 MISS:          0 MSHR_MERGE:          0
cpu0->LLC WRITE        ACCESS:     297742 HIT:     224011 MISS:      73731 MSHR_MERGE:          0
cpu0->LLC TRANSLATION  ACCESS:      18745 HIT:       6476 MISS:      12269 MSHR_MERGE:          0
cpu0->LLC PREFETCH REQUESTED:          0 ISSUED:          0 USEFUL:          0 USELESS:          0
cpu0->LLC AVERAGE MISS LATENCY: 202.8 cycles

DRAM Statistics

Channel 0 RQ ROW_BUFFER_HIT:          0
  ROW_BUFFER_MISS:     693854
  AVG DBUS CONGESTED CYCLE: 11.91
Channel 0 WQ ROW_BUFFER_HIT:     107810
  ROW_BUFFER_MISS:     190276
  FULL:          0
Channel 0 REFRESHES ISSUED:       4798
