[VMEM] WARNING: physical memory size is smaller than virtual memory size.

*** ChampSim Multicore Out-of-Order Simulator ***
Warmup Instructions: 10000000
Simulation Instructions: 50000000
Number of CPUs: 1
Page size: 4096

Off-chip DRAM Size: 16 GiB Channels: 1 Width: 64-bit Data Rate: 3205 MT/s
Heartbeat CPU 0 instructions: 10000001 cycles: 2973580 heartbeat IPC: 3.363 cumulative IPC: 3.363 (Simulation time: 00 hr 00 min 23 sec)
Warmup finished CPU 0 instructions: 10000001 cycles: 2973580 cumulative IPC: 3.363 (Simulation time: 00 hr 00 min 23 sec)
Warmup complete CPU 0 instructions: 10000001 cycles: 2973580 cumulative IPC: 3.363 (Simulation time: 00 hr 00 min 23 sec)
Heartbeat CPU 0 instructions: 20000002 cycles: 28153654 heartbeat IPC: 0.3971 cumulative IPC: 0.3971 (Simulation time: 00 hr 02 min 38 sec)
Heartbeat CPU 0 instructions: 30000002 cycles: 53391841 heartbeat IPC: 0.3962 cumulative IPC: 0.3967 (Simulation time: 00 hr 04 min 53 sec)
Heartbeat CPU 0 instructions: 40000006 cycles: 78623401 heartbeat IPC: 0.3963 cumulative IPC: 0.3966 (Simulation time: 00 hr 07 min 09 sec)
Heartbeat CPU 0 instructions: 50000006 cycles: 103874621 heartbeat IPC: 0.396 cumulative IPC: 0.3964 (Simulation time: 00 hr 09 min 25 sec)
Simulation finished CPU 0 instructions: 50000003 cycles: 126120706 cumulative IPC: 0.3964 (Simulation time: 00 hr 11 min 41 sec)
Simulation complete CPU 0 instructions: 50000003 cycles: 126120706 cumulative IPC: 0.3964 (Simulation time: 00 hr 11 min 41 sec)

ChampSim completed all CPUs

=== Simulation ===
CPU 0 runs traces/649.fotonik3d_s-1176B.champsimtrace.xz

Region of Interest Statistics

CPU 0 cumulative IPC: 0.3964 instructions: 50000003 cycles: 126120706
CPU 0 Branch Prediction Accuracy: 99.98% MPKI: 0.00438 Average ROB Occupancy at Mispredict: 352
Branch type MPKI
BRANCH_DIRECT_JUMP: 0
BRANCH_INDIRECT: 0
BRANCH_CONDITIONAL: 0.00438
BRANCH_DIRECT_CALL: 0
BRANCH_INDIRECT_CALL: 0
BRANCH_RETURN: 0

cpu0->cpu0_STLB TOTAL        ACCESS:      11681 HIT:       4818 MISS:       6863 MSHR_MERGE:          0
cpu0->cpu0_STLB LOAD         ACCESS:      11681 HIT:       4818 MISS:       6863 MSHR_MERGE:          0
cpu0->cpu0_STLB RFO          ACCESS:          0 HIT:          0 MISS:          0 MSHR_MERGE:          0
cpu0->cpu0_STLB PREFETCH     ACCESS:          0 HIT:          0 MISS:          0 MSHR_MERGE:          0
cpu0->cpu0_STLB WRITE        ACCESS:          0 HIT:          0 MISS:          0 MSHR_MERGE:          0
cpu0->cpu0_STLB TRANSLATION  ACCESS:          0 HIT:          0 MISS:          0 MSHR_MERGE:          0
cpu0->cpu0_STLB PREFETCH REQUESTED:          0 ISSUED:          0 USEFUL:          0 USELESS:          0
cpu0->cpu0_STLB AVERAGE MISS LATENCY: 666 cycles
cpu0->cpu0_L2C TOTAL        ACCESS:    1108870 HIT:     241904 MISS:     866966 MSHR_MERGE:          0
cpu0->cpu0_L2C LOAD         ACCESS:     660914 HIT:      99757 MISS:     561157 MSHR_MERGE:          0
cpu0->cpu0_L2C RFO          ACCESS:        763 HIT:        739 MISS:         24 MSHR_MERGE:          0
cpu0->cpu0_L2C PREFETCH     ACCESS:          0 HIT:          0 MISS:          0 MSHR_MERGE:          0
cpu0->cpu0_L2C WRITE        ACCESS:     439250 HIT:     141395 MISS:     297855 MSHR_MERGE:          0
cpu0->cpu0_L2C TRANSLATION  ACCESS:       7943 HIT:         13 MISS:       7930 MSHR_MERGE:          0
cpu0->cpu0_L2C PREFETCH REQUESTED:          0 ISSUED:          0 USEFUL:          0 USELESS:          0
cpu0->cpu0_L2C AVERAGE MISS LATENCY: 124.4 cycles
cpu0->cpu0_L1I TOTAL        ACCESS:    8871771 HIT:    8871771 MISS:          0 MSHR_MERGE:          0
cpu0->cpu0_L1I LOAD         ACCESS:    8871771 HIT:    8871771 MISS:          0 MSHR_MERGE:          0
cpu0->cpu0_L1I RFO          ACCESS:          0 HIT:          0 MISS:          0 MSHR_MERGE:          0
cpu0->cpu0_L1I PREFETCH     ACCESS:          0 HIT:          0 MISS:          0 MSHR_MERGE:          0
cpu0->cpu0_L1I WRITE        ACCESS:          0 HIT:          0 MISS:          0 MSHR_MERGE:          0
cpu0->cpu0_L1I TRANSLATION  ACCESS:          0 HIT:          0 MISS:          0 MSHR_MERGE:          0
cpu0->cpu0_L1I PREFETCH REQUESTED:          0 ISSUED:          0 USEFUL:          0 USELESS:          0
cpu0->cpu0_L1I AVERAGE MISS LATENCY: - cycles
cpu0->cpu0_L1D TOTAL        ACCESS:   15483379 HIT:   12887583 MISS:    2595796 MSHR_MERGE:    1926176
cpu0->cpu0_L1D LOAD         ACCESS:   11959365 HIT:    9373972 MISS:    2585393 MSHR_MERGE:    1924479
cpu0->cpu0_L1D RFO          ACCESS:          0 HIT:          0 MISS:          0 MSHR_MERGE:          0
cpu0->cpu0_L1D PREFETCH     ACCESS:          0 HIT:          0 MISS:          0 MSHR_MERGE:          0
cpu0->cpu0_L1D WRITE        ACCESS:    3510266 HIT:    3507806 MISS:       2460 MSHR_MERGE:       1697
cpu0->cpu0_L1D TRANSLATION  ACCESS:      13748 HIT:       5805 MISS:       7943 MSHR_MERGE:          0
cpu0->cpu0_L1D PREFETCH REQUESTED:          0 ISSUED:          0 USEFUL:          0 USELESS:          0
cpu0->cpu0_L1D AVERAGE MISS LATENCY: 168.1 cycles
cpu0->cpu0_ITLB TOTAL        ACCESS:    7121297 HIT:    7121297 MISS:          0 MSHR_MERGE:          0
cpu0->cpu0_ITLB LOAD         ACCESS:    7121297 HIT:    7121297 MISS:          0 MSHR_MERGE:          0
cpu0->cpu0_ITLB RFO          ACCESS:          0 HIT:          0 MISS:          0 MSHR_MERGE:          0
cpu0->cpu0_ITLB PREFETCH     ACCESS:          0 HIT:          0 MISS:          0 MSHR_MERGE:          0
cpu0->cpu0_ITLB WRITE        ACCESS:          0 HIT:          0 MISS:          0 MSHR_MERGE:          0
cpu0->cpu0_ITLB TRANSLATION  ACCESS:          0 HIT:          0 MISS:          0 MSHR_MERGE:          0
cpu0->cpu0_ITLB PREFETCH REQUESTED:          0 ISSUED:          0 USEFUL:          0 USELESS:          0
cpu0->cpu0_ITLB AVERAGE MISS LATENCY: - cycles
cpu0->cpu0_DTLB TOTAL        ACCESS:   14207402 HIT:   14167677 MISS:      39725 MSHR_MERGE:      28044
cpu0->cpu0_DTLB LOAD         ACCESS:   14207402 HIT:   14167677 MISS:      39725 MSHR_MERGE:      28044
cpu0->cpu0_DTLB RFO          ACCESS:          0 HIT:          0 MISS:          0 MSHR_MERGE:          0
cpu0->cpu0_DTLB PREFETCH     ACCESS:          0 HIT:          0 MISS:          0 MSHR_MERGE:          0
cpu0->cpu0_DTLB WRITE        ACCESS:          0 HIT:          0 MISS:          0 MSHR_MERGE:          0
cpu0->cpu0_DTLB TRANSLATION  ACCESS:          0 HIT:          0 MISS:          0 MSHR_MERGE:          0
cpu0->cpu0_DTLB PREFETCH REQUESTED:          0 ISSUED:          0 USEFUL:          0 USELESS:          0
cpu0->cpu0_DTLB AVERAGE MISS LATENCY: 396.9 cycles
cpu0->LLC TOTAL        ACCESS:    1007573 HIT:     530470 MISS:     477103 MSHR_MERGE:          0
cpu0->LLC LOAD         ACCESS:     561157 HIT:     122465 MISS:     438692 MSHR_MERGE:          0
cpu0->LLC RFO          ACCESS:         24 HIT:         24 MISS:          0 MSHR_MERGE:          0
cpu0->LLC PREFETCH     ACCESS:          0 HIT:          0 MISS:          0 MSHR_MERGE:          0
cpu0->LLC WRITE        ACCESS:     438462 HIT:     407802 MISS:      30660 MSHR_MERGE:          0
cpu0->LLC TRANSLATION  ACCESS:       7930 HIT:        179 MISS:       7751 MSHR_MERGE:          0
cpu0->LLC PREFETCH REQUESTED:          0 ISSUED:          0 USEFUL:          0 USELESS:          0
cpu0->LLC AVERAGE MISS LATENCY: 205.2 cycles

DRAM Statistics

Channel 0 RQ ROW_BUFFER_HIT:       4741
  ROW_BUFFER_MISS:     441702
  AVG DBUS CONGESTED CYCLE: 9.334
Channel 0 WQ ROW_BUFFER_HIT:     168761
  ROW_BUFFER_MISS:     269078
  FULL:          0
Channel 0 REFRESHES ISSUED:      10510
