[VMEM] WARNING: physical memory size is smaller than virtual memory size.

*** ChampSim Multicore Out-of-Order Simulator ***
Warmup Instructions: 10000000
Simulation Instructions: 50000000
Number of CPUs: 1
Page size: 4096

Off-chip DRAM Size: 16 GiB Channels: 1 Width: 64-bit Data Rate: 3205 MT/s
Heartbeat CPU 0 instructions: 10000003 cycles: 2867220 heartbeat IPC: 3.488 cumulative IPC: 3.488 (Simulation time: 00 hr 00 min 20 sec)
Warmup finished CPU 0 instructions: 10000003 cycles: 2867220 cumulative IPC: 3.488 (Simulation time: 00 hr 00 min 20 sec)
Warmup complete CPU 0 instructions: 10000003 cycles: 2867220 cumulative IPC: 3.488 (Simulation time: 00 hr 00 min 20 sec)
Heartbeat CPU 0 instructions: 20000005 cycles: 10863080 heartbeat IPC: 1.251 cumulative IPC: 1.251 (Simulation time: 00 hr 01 min 01 sec)
Heartbeat CPU 0 instructions: 30000007 cycles: 21991732 heartbeat IPC: 0.8986 cumulative IPC: 1.046 (Simulation time: 00 hr 01 min 53 sec)
Heartbeat CPU 0 instructions: 40000009 cycles: 31149447 heartbeat IPC: 1.092 cumulative IPC: 1.061 (Simulation time: 00 hr 02 min 36 sec)
Heartbeat CPU 0 instructions: 50000011 cycles: 41190749 heartbeat IPC: 0.9959 cumulative IPC: 1.044 (Simulation time: 00 hr 03 min 23 sec)
Simulation finished CPU 0 instructions: 50000000 cycles: 48970509 cumulative IPC: 1.021 (Simulation time: 00 hr 04 min 12 sec)
Simulation complete CPU 0 instructions: 50000000 cycles: 48970509 cumulative IPC: 1.021 (Simulation time: 00 hr 04 min 12 sec)

ChampSim completed all CPUs

=== Simulation ===
CPU 0 runs traces/627.cam4_s-490B.champsimtrace.xz

Region of Interest Statistics

CPU 0 cumulative IPC: 1.021 instructions: 50000000 cycles: 48970509
CPU 0 Branch Prediction Accuracy: 90.31% MPKI: 9.36 Average ROB Occupancy at Mispredict: 34.64
Branch type MPKI
BRANCH_DIRECT_JUMP: 0.00628
BRANCH_INDIRECT: 0
BRANCH_CONDITIONAL: 9.353
BRANCH_DIRECT_CALL: 0.0001
BRANCH_INDIRECT_CALL: 0
BRANCH_RETURN: 0.00014

cpu0->cpu0_STLB TOTAL        ACCESS:      15734 HIT:      14877 MISS:        857 MSHR_MERGE:          0
cpu0->cpu0_STLB LOAD         ACCESS:      15734 HIT:      14877 MISS:        857 MSHR_MERGE:          0
cpu0->cpu0_STLB RFO          ACCESS:          0 HIT:          0 MISS:          0 MSHR_MERGE:          0
cpu0->cpu0_STLB PREFETCH     ACCESS:          0 HIT:          0 MISS:          0 MSHR_MERGE:          0
cpu0->cpu0_STLB WRITE        ACCESS:          0 HIT:          0 MISS:          0 MSHR_MERGE:          0
cpu0->cpu0_STLB TRANSLATION  ACCESS:          0 HIT:          0 MISS:          0 MSHR_MERGE:          0
cpu0->cpu0_STLB PREFETCH REQUESTED:          0 ISSUED:          0 USEFUL:          0 USELESS:          0
cpu0->cpu0_STLB AVERAGE MISS LATENCY: 697.6 cycles
cpu0->cpu0_L2C TOTAL        ACCESS:    1299472 HIT:     411051 MISS:     888421 MSHR_MERGE:          0
cpu0->cpu0_L2C LOAD         ACCESS:     630682 HIT:     195047 MISS:     435635 MSHR_MERGE:          0
cpu0->cpu0_L2C RFO          ACCESS:     279570 HIT:      35863 MISS:     243707 MSHR_MERGE:          0
cpu0->cpu0_L2C PREFETCH     ACCESS:          0 HIT:          0 MISS:          0 MSHR_MERGE:          0
cpu0->cpu0_L2C WRITE        ACCESS:     388150 HIT:     180141 MISS:     208009 MSHR_MERGE:          0
cpu0->cpu0_L2C TRANSLATION  ACCESS:       1070 HIT:          0 MISS:       1070 MSHR_MERGE:          0
cpu0->cpu0_L2C PREFETCH REQUESTED:          0 ISSUED:          0 USEFUL:          0 USELESS:          0
cpu0->cpu0_L2C AVERAGE MISS LATENCY: 78.18 cycles
cpu0->cpu0_L1I TOTAL        ACCESS:    3487198 HIT:    3484606 MISS:       2592 MSHR_MERGE:       1384
cpu0->cpu0_L1I LOAD         ACCESS:    3487198 HIT:    3484606 MISS:       2592 MSHR_MERGE:       1384
cpu0->cpu0_L1I RFO          ACCESS:          0 HIT:          0 MISS:          0 MSHR_MERGE:          0
cpu0->cpu0_L1I PREFETCH     ACCESS:          0 HIT:          0 MISS:          0 MSHR_MERGE:          0
cpu0->cpu0_L1I WRITE        ACCESS:          0 HIT:          0 MISS:          0 MSHR_MERGE:          0
cpu0->cpu0_L1I TRANSLATION  ACCESS:          0 HIT:          0 MISS:          0 MSHR_MERGE:          0
cpu0->cpu0_L1I PREFETCH REQUESTED:          0 ISSUED:          0 USEFUL:          0 USELESS:          0
cpu0->cpu0_L1I AVERAGE MISS LATENCY: 260.6 cycles
cpu0->cpu0_L1D TOTAL        ACCESS:    9953645 HIT:    7333829 MISS:    2619816 MSHR_MERGE:    1709702
cpu0->cpu0_L1D LOAD         ACCESS:    6643153 HIT:    5262453 MISS:    1380700 MSHR_MERGE:     751226
cpu0->cpu0_L1D RFO          ACCESS:          0 HIT:          0 MISS:          0 MSHR_MERGE:          0
cpu0->cpu0_L1D PREFETCH     ACCESS:          0 HIT:          0 MISS:          0 MSHR_MERGE:          0
cpu0->cpu0_L1D WRITE        ACCESS:    3308773 HIT:    2070728 MISS:    1238045 MSHR_MERGE:     958475
cpu0->cpu0_L1D TRANSLATION  ACCESS:       1719 HIT:        648 MISS:       1071 MSHR_MERGE:          1
cpu0->cpu0_L1D PREFETCH REQUESTED:          0 ISSUED:          0 USEFUL:          0 USELESS:          0
cpu0->cpu0_L1D AVERAGE MISS LATENCY: 83.86 cycles
cpu0->cpu0_ITLB TOTAL        ACCESS:    3145234 HIT:    3145212 MISS:         22 MSHR_MERGE:         16
cpu0->cpu0_ITLB LOAD         ACCESS:    3145234 HIT:    3145212 MISS:         22 MSHR_MERGE:         16
cpu0->cpu0_ITLB RFO          ACCESS:          0 HIT:          0 MISS:          0 MSHR_MERGE:          0
cpu0->cpu0_ITLB PREFETCH     ACCESS:          0 HIT:          0 MISS:          0 MSHR_MERGE:          0
cpu0->cpu0_ITLB WRITE        ACCESS:          0 HIT:          0 MISS:          0 MSHR_MERGE:          0
cpu0->cpu0_ITLB TRANSLATION  ACCESS:          0 HIT:          0 MISS:          0 MSHR_MERGE:          0
cpu0->cpu0_ITLB PREFETCH REQUESTED:          0 ISSUED:          0 USEFUL:          0 USELESS:          0
cpu0->cpu0_ITLB AVERAGE MISS LATENCY: 876.8 cycles
cpu0->cpu0_DTLB TOTAL        ACCESS:    9647071 HIT:    9619742 MISS:      27329 MSHR_MERGE:      11601
cpu0->cpu0_DTLB LOAD         ACCESS:    9647071 HIT:    9619742 MISS:      27329 MSHR_MERGE:      11601
cpu0->cpu0_DTLB RFO          ACCESS:          0 HIT:          0 MISS:          0 MSHR_MERGE:          0
cpu0->cpu0_DTLB PREFETCH     ACCESS:          0 HIT:          0 MISS:          0 MSHR_MERGE:          0
cpu0->cpu0_DTLB WRITE        ACCESS:          0 HIT:          0 MISS:          0 MSHR_MERGE:          0
cpu0->cpu0_DTLB TRANSLATION  ACCESS:          0 HIT:          0 MISS:          0 MSHR_MERGE:          0
cpu0->cpu0_DTLB PREFETCH REQUESTED:          0 ISSUED:          0 USEFUL:          0 USELESS:          0
cpu0->cpu0_DTLB AVERAGE MISS LATENCY: 42.73 cycles
cpu0->LLC TOTAL        ACCESS:     991506 HIT:     742704 MISS:     248802 MSHR_MERGE:          0
cpu0->LLC LOAD         ACCESS:     435635 HIT:     335561 MISS:     100074 MSHR_MERGE:          0
cpu0->LLC RFO          ACCESS:     243705 HIT:     124237 MISS:     119468 MSHR_MERGE:          0
cpu0->LLC PREFETCH     ACCESS:          0 HIT:          0 MISS:          0 MSHR_MERGE:          0
cpu0->LLC WRITE        ACCESS:     311096 HIT:     282896 MISS:      28200 MSHR_MERGE:          0
cpu0->LLC TRANSLATION  ACCESS:       1070 HIT:         10 MISS:       1060 MSHR_MERGE:          0
cpu0->LLC PREFETCH REQUESTED:          0 ISSUED:          0 USEFUL:          0 USELESS:          0
cpu0->LLC AVERAGE MISS LATENCY: 234.8 cycles

DRAM Statistics

Channel 0 RQ ROW_BUFFER_HIT:      10852
  ROW_BUFFER_MISS:     209507
  AVG DBUS CONGESTED CYCLE: 10.25
Channel 0 WQ ROW_BUFFER_HIT:      39142
  ROW_BUFFER_MISS:     141833
  FULL:         92
Channel 0 REFRESHES ISSUED:       4081
