
---------- Begin Simulation Statistics ----------
simSeconds                                   0.005512                       # Number of seconds simulated (Second)
simTicks                                   5512257225                       # Number of ticks simulated (Tick)
finalTick                                  5512257225                       # Number of ticks from beginning of simulation (restored from checkpoints and never reset) (Tick)
simFreq                                  1000000000000                       # The number of ticks per simulated second ((Tick/Second))
hostSeconds                                     80.28                       # Real time elapsed on the host (Second)
hostTickRate                                 68658631                       # The number of ticks simulated per host second (ticks/s) ((Tick/Second))
hostMemory                                     261036                       # Number of bytes of host memory used (Byte)
simInsts                                     23231586                       # Number of instructions simulated (Count)
simOps                                       24386549                       # Number of ops (including micro ops) simulated (Count)
hostInstRate                                   289364                       # Simulator instruction rate (inst/s) ((Count/Second))
hostOpRate                                     303749                       # Simulator op (including micro ops) rate (op/s) ((Count/Second))
board.cache_hierarchy.l1dcaches.demandHits::processor.cores.core.data      7597113                       # number of demand (read+write) hits (Count)
board.cache_hierarchy.l1dcaches.demandHits::total      7597113                       # number of demand (read+write) hits (Count)
board.cache_hierarchy.l1dcaches.overallHits::processor.cores.core.data      7597113                       # number of overall hits (Count)
board.cache_hierarchy.l1dcaches.overallHits::total      7597113                       # number of overall hits (Count)
board.cache_hierarchy.l1dcaches.demandMisses::processor.cores.core.data        81995                       # number of demand (read+write) misses (Count)
board.cache_hierarchy.l1dcaches.demandMisses::total        81995                       # number of demand (read+write) misses (Count)
board.cache_hierarchy.l1dcaches.overallMisses::processor.cores.core.data        81995                       # number of overall misses (Count)
board.cache_hierarchy.l1dcaches.overallMisses::total        81995                       # number of overall misses (Count)
board.cache_hierarchy.l1dcaches.demandMissLatency::processor.cores.core.data    858441216                       # number of demand (read+write) miss ticks (Tick)
board.cache_hierarchy.l1dcaches.demandMissLatency::total    858441216                       # number of demand (read+write) miss ticks (Tick)
board.cache_hierarchy.l1dcaches.overallMissLatency::processor.cores.core.data    858441216                       # number of overall miss ticks (Tick)
board.cache_hierarchy.l1dcaches.overallMissLatency::total    858441216                       # number of overall miss ticks (Tick)
board.cache_hierarchy.l1dcaches.demandAccesses::processor.cores.core.data      7679108                       # number of demand (read+write) accesses (Count)
board.cache_hierarchy.l1dcaches.demandAccesses::total      7679108                       # number of demand (read+write) accesses (Count)
board.cache_hierarchy.l1dcaches.overallAccesses::processor.cores.core.data      7679108                       # number of overall (read+write) accesses (Count)
board.cache_hierarchy.l1dcaches.overallAccesses::total      7679108                       # number of overall (read+write) accesses (Count)
board.cache_hierarchy.l1dcaches.demandMissRate::processor.cores.core.data     0.010678                       # miss rate for demand accesses (Ratio)
board.cache_hierarchy.l1dcaches.demandMissRate::total     0.010678                       # miss rate for demand accesses (Ratio)
board.cache_hierarchy.l1dcaches.overallMissRate::processor.cores.core.data     0.010678                       # miss rate for overall accesses (Ratio)
board.cache_hierarchy.l1dcaches.overallMissRate::total     0.010678                       # miss rate for overall accesses (Ratio)
board.cache_hierarchy.l1dcaches.demandAvgMissLatency::processor.cores.core.data 10469.433697                       # average overall miss latency in ticks ((Tick/Count))
board.cache_hierarchy.l1dcaches.demandAvgMissLatency::total 10469.433697                       # average overall miss latency in ticks ((Tick/Count))
board.cache_hierarchy.l1dcaches.overallAvgMissLatency::processor.cores.core.data 10469.433697                       # average overall miss latency ((Tick/Count))
board.cache_hierarchy.l1dcaches.overallAvgMissLatency::total 10469.433697                       # average overall miss latency ((Tick/Count))
board.cache_hierarchy.l1dcaches.blockedCycles::no_mshrs         3003                       # number of cycles access was blocked (Cycle)
board.cache_hierarchy.l1dcaches.blockedCycles::no_wbuffers            0                       # number of cycles access was blocked (Cycle)
board.cache_hierarchy.l1dcaches.blockedCycles::no_targets        81181                       # number of cycles access was blocked (Cycle)
board.cache_hierarchy.l1dcaches.blockedCauses::no_mshrs          211                       # number of times access was blocked (Count)
board.cache_hierarchy.l1dcaches.blockedCauses::no_wbuffers            0                       # number of times access was blocked (Count)
board.cache_hierarchy.l1dcaches.blockedCauses::no_targets         5490                       # number of times access was blocked (Count)
board.cache_hierarchy.l1dcaches.avgBlocked::no_mshrs    14.232227                       # average number of cycles each access was blocked ((Cycle/Count))
board.cache_hierarchy.l1dcaches.avgBlocked::no_wbuffers          nan                       # average number of cycles each access was blocked ((Cycle/Count))
board.cache_hierarchy.l1dcaches.avgBlocked::no_targets    14.787067                       # average number of cycles each access was blocked ((Cycle/Count))
board.cache_hierarchy.l1dcaches.writebacks::writebacks       127795                       # number of writebacks (Count)
board.cache_hierarchy.l1dcaches.writebacks::total       127795                       # number of writebacks (Count)
board.cache_hierarchy.l1dcaches.demandMshrHits::processor.cores.core.data        58037                       # number of demand (read+write) MSHR hits (Count)
board.cache_hierarchy.l1dcaches.demandMshrHits::total        58037                       # number of demand (read+write) MSHR hits (Count)
board.cache_hierarchy.l1dcaches.overallMshrHits::processor.cores.core.data        58037                       # number of overall MSHR hits (Count)
board.cache_hierarchy.l1dcaches.overallMshrHits::total        58037                       # number of overall MSHR hits (Count)
board.cache_hierarchy.l1dcaches.demandMshrMisses::processor.cores.core.data        23958                       # number of demand (read+write) MSHR misses (Count)
board.cache_hierarchy.l1dcaches.demandMshrMisses::total        23958                       # number of demand (read+write) MSHR misses (Count)
board.cache_hierarchy.l1dcaches.overallMshrMisses::cache_hierarchy.l1dcaches.prefetcher.prefetchers0        14730                       # number of overall MSHR misses (Count)
board.cache_hierarchy.l1dcaches.overallMshrMisses::cache_hierarchy.l1dcaches.prefetcher.prefetchers1        66645                       # number of overall MSHR misses (Count)
board.cache_hierarchy.l1dcaches.overallMshrMisses::cache_hierarchy.l1dcaches.prefetcher.prefetchers2        23485                       # number of overall MSHR misses (Count)
board.cache_hierarchy.l1dcaches.overallMshrMisses::processor.cores.core.data        23958                       # number of overall MSHR misses (Count)
board.cache_hierarchy.l1dcaches.overallMshrMisses::total       128818                       # number of overall MSHR misses (Count)
board.cache_hierarchy.l1dcaches.demandMshrMissLatency::processor.cores.core.data    269727220                       # number of demand (read+write) MSHR miss ticks (Tick)
board.cache_hierarchy.l1dcaches.demandMshrMissLatency::total    269727220                       # number of demand (read+write) MSHR miss ticks (Tick)
board.cache_hierarchy.l1dcaches.overallMshrMissLatency::cache_hierarchy.l1dcaches.prefetcher.prefetchers0    251595778                       # number of overall MSHR miss ticks (Tick)
board.cache_hierarchy.l1dcaches.overallMshrMissLatency::cache_hierarchy.l1dcaches.prefetcher.prefetchers1    556011149                       # number of overall MSHR miss ticks (Tick)
board.cache_hierarchy.l1dcaches.overallMshrMissLatency::cache_hierarchy.l1dcaches.prefetcher.prefetchers2    272791204                       # number of overall MSHR miss ticks (Tick)
board.cache_hierarchy.l1dcaches.overallMshrMissLatency::processor.cores.core.data    269727220                       # number of overall MSHR miss ticks (Tick)
board.cache_hierarchy.l1dcaches.overallMshrMissLatency::total   1350125351                       # number of overall MSHR miss ticks (Tick)
board.cache_hierarchy.l1dcaches.demandMshrMissRate::processor.cores.core.data     0.003120                       # mshr miss ratio for demand accesses (Ratio)
board.cache_hierarchy.l1dcaches.demandMshrMissRate::total     0.003120                       # mshr miss ratio for demand accesses (Ratio)
board.cache_hierarchy.l1dcaches.overallMshrMissRate::cache_hierarchy.l1dcaches.prefetcher.prefetchers0          inf                       # mshr miss ratio for overall accesses (Ratio)
board.cache_hierarchy.l1dcaches.overallMshrMissRate::cache_hierarchy.l1dcaches.prefetcher.prefetchers1          inf                       # mshr miss ratio for overall accesses (Ratio)
board.cache_hierarchy.l1dcaches.overallMshrMissRate::cache_hierarchy.l1dcaches.prefetcher.prefetchers2          inf                       # mshr miss ratio for overall accesses (Ratio)
board.cache_hierarchy.l1dcaches.overallMshrMissRate::processor.cores.core.data     0.003120                       # mshr miss ratio for overall accesses (Ratio)
board.cache_hierarchy.l1dcaches.overallMshrMissRate::total     0.016775                       # mshr miss ratio for overall accesses (Ratio)
board.cache_hierarchy.l1dcaches.demandAvgMshrMissLatency::processor.cores.core.data 11258.336255                       # average overall mshr miss latency ((Tick/Count))
board.cache_hierarchy.l1dcaches.demandAvgMshrMissLatency::total 11258.336255                       # average overall mshr miss latency ((Tick/Count))
board.cache_hierarchy.l1dcaches.overallAvgMshrMissLatency::cache_hierarchy.l1dcaches.prefetcher.prefetchers0 17080.500883                       # average overall mshr miss latency ((Tick/Count))
board.cache_hierarchy.l1dcaches.overallAvgMshrMissLatency::cache_hierarchy.l1dcaches.prefetcher.prefetchers1  8342.878671                       # average overall mshr miss latency ((Tick/Count))
board.cache_hierarchy.l1dcaches.overallAvgMshrMissLatency::cache_hierarchy.l1dcaches.prefetcher.prefetchers2 11615.550522                       # average overall mshr miss latency ((Tick/Count))
board.cache_hierarchy.l1dcaches.overallAvgMshrMissLatency::processor.cores.core.data 11258.336255                       # average overall mshr miss latency ((Tick/Count))
board.cache_hierarchy.l1dcaches.overallAvgMshrMissLatency::total 10480.874963                       # average overall mshr miss latency ((Tick/Count))
board.cache_hierarchy.l1dcaches.replacements       127795                       # number of replacements (Count)
board.cache_hierarchy.l1dcaches.HardPFReq.mshrMisses::cache_hierarchy.l1dcaches.prefetcher.prefetchers0        14730                       # number of HardPFReq MSHR misses (Count)
board.cache_hierarchy.l1dcaches.HardPFReq.mshrMisses::cache_hierarchy.l1dcaches.prefetcher.prefetchers1        66645                       # number of HardPFReq MSHR misses (Count)
board.cache_hierarchy.l1dcaches.HardPFReq.mshrMisses::cache_hierarchy.l1dcaches.prefetcher.prefetchers2        23485                       # number of HardPFReq MSHR misses (Count)
board.cache_hierarchy.l1dcaches.HardPFReq.mshrMisses::total       104860                       # number of HardPFReq MSHR misses (Count)
board.cache_hierarchy.l1dcaches.HardPFReq.mshrMissLatency::cache_hierarchy.l1dcaches.prefetcher.prefetchers0    251595778                       # number of HardPFReq MSHR miss ticks (Tick)
board.cache_hierarchy.l1dcaches.HardPFReq.mshrMissLatency::cache_hierarchy.l1dcaches.prefetcher.prefetchers1    556011149                       # number of HardPFReq MSHR miss ticks (Tick)
board.cache_hierarchy.l1dcaches.HardPFReq.mshrMissLatency::cache_hierarchy.l1dcaches.prefetcher.prefetchers2    272791204                       # number of HardPFReq MSHR miss ticks (Tick)
board.cache_hierarchy.l1dcaches.HardPFReq.mshrMissLatency::total   1080398131                       # number of HardPFReq MSHR miss ticks (Tick)
board.cache_hierarchy.l1dcaches.HardPFReq.mshrMissRate::cache_hierarchy.l1dcaches.prefetcher.prefetchers0          inf                       # mshr miss rate for HardPFReq accesses (Ratio)
board.cache_hierarchy.l1dcaches.HardPFReq.mshrMissRate::cache_hierarchy.l1dcaches.prefetcher.prefetchers1          inf                       # mshr miss rate for HardPFReq accesses (Ratio)
board.cache_hierarchy.l1dcaches.HardPFReq.mshrMissRate::cache_hierarchy.l1dcaches.prefetcher.prefetchers2          inf                       # mshr miss rate for HardPFReq accesses (Ratio)
board.cache_hierarchy.l1dcaches.HardPFReq.mshrMissRate::total          inf                       # mshr miss rate for HardPFReq accesses (Ratio)
board.cache_hierarchy.l1dcaches.HardPFReq.avgMshrMissLatency::cache_hierarchy.l1dcaches.prefetcher.prefetchers0 17080.500883                       # average HardPFReq mshr miss latency ((Tick/Count))
board.cache_hierarchy.l1dcaches.HardPFReq.avgMshrMissLatency::cache_hierarchy.l1dcaches.prefetcher.prefetchers1  8342.878671                       # average HardPFReq mshr miss latency ((Tick/Count))
board.cache_hierarchy.l1dcaches.HardPFReq.avgMshrMissLatency::cache_hierarchy.l1dcaches.prefetcher.prefetchers2 11615.550522                       # average HardPFReq mshr miss latency ((Tick/Count))
board.cache_hierarchy.l1dcaches.HardPFReq.avgMshrMissLatency::total 10303.243668                       # average HardPFReq mshr miss latency ((Tick/Count))
board.cache_hierarchy.l1dcaches.LoadLockedReq.hits::processor.cores.core.data           14                       # number of LoadLockedReq hits (Count)
board.cache_hierarchy.l1dcaches.LoadLockedReq.hits::total           14                       # number of LoadLockedReq hits (Count)
board.cache_hierarchy.l1dcaches.LoadLockedReq.misses::processor.cores.core.data            1                       # number of LoadLockedReq misses (Count)
board.cache_hierarchy.l1dcaches.LoadLockedReq.misses::total            1                       # number of LoadLockedReq misses (Count)
board.cache_hierarchy.l1dcaches.LoadLockedReq.missLatency::processor.cores.core.data         7992                       # number of LoadLockedReq miss ticks (Tick)
board.cache_hierarchy.l1dcaches.LoadLockedReq.missLatency::total         7992                       # number of LoadLockedReq miss ticks (Tick)
board.cache_hierarchy.l1dcaches.LoadLockedReq.accesses::processor.cores.core.data           15                       # number of LoadLockedReq accesses(hits+misses) (Count)
board.cache_hierarchy.l1dcaches.LoadLockedReq.accesses::total           15                       # number of LoadLockedReq accesses(hits+misses) (Count)
board.cache_hierarchy.l1dcaches.LoadLockedReq.missRate::processor.cores.core.data     0.066667                       # miss rate for LoadLockedReq accesses (Ratio)
board.cache_hierarchy.l1dcaches.LoadLockedReq.missRate::total     0.066667                       # miss rate for LoadLockedReq accesses (Ratio)
board.cache_hierarchy.l1dcaches.LoadLockedReq.avgMissLatency::processor.cores.core.data         7992                       # average LoadLockedReq miss latency ((Tick/Count))
board.cache_hierarchy.l1dcaches.LoadLockedReq.avgMissLatency::total         7992                       # average LoadLockedReq miss latency ((Tick/Count))
board.cache_hierarchy.l1dcaches.LoadLockedReq.mshrMisses::processor.cores.core.data            1                       # number of LoadLockedReq MSHR misses (Count)
board.cache_hierarchy.l1dcaches.LoadLockedReq.mshrMisses::total            1                       # number of LoadLockedReq MSHR misses (Count)
board.cache_hierarchy.l1dcaches.LoadLockedReq.mshrMissLatency::processor.cores.core.data         6660                       # number of LoadLockedReq MSHR miss ticks (Tick)
board.cache_hierarchy.l1dcaches.LoadLockedReq.mshrMissLatency::total         6660                       # number of LoadLockedReq MSHR miss ticks (Tick)
board.cache_hierarchy.l1dcaches.LoadLockedReq.mshrMissRate::processor.cores.core.data     0.066667                       # mshr miss rate for LoadLockedReq accesses (Ratio)
board.cache_hierarchy.l1dcaches.LoadLockedReq.mshrMissRate::total     0.066667                       # mshr miss rate for LoadLockedReq accesses (Ratio)
board.cache_hierarchy.l1dcaches.LoadLockedReq.avgMshrMissLatency::processor.cores.core.data         6660                       # average LoadLockedReq mshr miss latency ((Tick/Count))
board.cache_hierarchy.l1dcaches.LoadLockedReq.avgMshrMissLatency::total         6660                       # average LoadLockedReq mshr miss latency ((Tick/Count))
board.cache_hierarchy.l1dcaches.ReadReq.hits::processor.cores.core.data      5982257                       # number of ReadReq hits (Count)
board.cache_hierarchy.l1dcaches.ReadReq.hits::total      5982257                       # number of ReadReq hits (Count)
board.cache_hierarchy.l1dcaches.ReadReq.misses::processor.cores.core.data        68468                       # number of ReadReq misses (Count)
board.cache_hierarchy.l1dcaches.ReadReq.misses::total        68468                       # number of ReadReq misses (Count)
board.cache_hierarchy.l1dcaches.ReadReq.missLatency::processor.cores.core.data    606997728                       # number of ReadReq miss ticks (Tick)
board.cache_hierarchy.l1dcaches.ReadReq.missLatency::total    606997728                       # number of ReadReq miss ticks (Tick)
board.cache_hierarchy.l1dcaches.ReadReq.accesses::processor.cores.core.data      6050725                       # number of ReadReq accesses(hits+misses) (Count)
board.cache_hierarchy.l1dcaches.ReadReq.accesses::total      6050725                       # number of ReadReq accesses(hits+misses) (Count)
board.cache_hierarchy.l1dcaches.ReadReq.missRate::processor.cores.core.data     0.011316                       # miss rate for ReadReq accesses (Ratio)
board.cache_hierarchy.l1dcaches.ReadReq.missRate::total     0.011316                       # miss rate for ReadReq accesses (Ratio)
board.cache_hierarchy.l1dcaches.ReadReq.avgMissLatency::processor.cores.core.data  8865.422212                       # average ReadReq miss latency ((Tick/Count))
board.cache_hierarchy.l1dcaches.ReadReq.avgMissLatency::total  8865.422212                       # average ReadReq miss latency ((Tick/Count))
board.cache_hierarchy.l1dcaches.ReadReq.mshrHits::processor.cores.core.data        50807                       # number of ReadReq MSHR hits (Count)
board.cache_hierarchy.l1dcaches.ReadReq.mshrHits::total        50807                       # number of ReadReq MSHR hits (Count)
board.cache_hierarchy.l1dcaches.ReadReq.mshrMisses::processor.cores.core.data        17661                       # number of ReadReq MSHR misses (Count)
board.cache_hierarchy.l1dcaches.ReadReq.mshrMisses::total        17661                       # number of ReadReq MSHR misses (Count)
board.cache_hierarchy.l1dcaches.ReadReq.mshrMissLatency::processor.cores.core.data    155328516                       # number of ReadReq MSHR miss ticks (Tick)
board.cache_hierarchy.l1dcaches.ReadReq.mshrMissLatency::total    155328516                       # number of ReadReq MSHR miss ticks (Tick)
board.cache_hierarchy.l1dcaches.ReadReq.mshrMissRate::processor.cores.core.data     0.002919                       # mshr miss rate for ReadReq accesses (Ratio)
board.cache_hierarchy.l1dcaches.ReadReq.mshrMissRate::total     0.002919                       # mshr miss rate for ReadReq accesses (Ratio)
board.cache_hierarchy.l1dcaches.ReadReq.avgMshrMissLatency::processor.cores.core.data  8795.001189                       # average ReadReq mshr miss latency ((Tick/Count))
board.cache_hierarchy.l1dcaches.ReadReq.avgMshrMissLatency::total  8795.001189                       # average ReadReq mshr miss latency ((Tick/Count))
board.cache_hierarchy.l1dcaches.StoreCondReq.hits::processor.cores.core.data            7                       # number of StoreCondReq hits (Count)
board.cache_hierarchy.l1dcaches.StoreCondReq.hits::total            7                       # number of StoreCondReq hits (Count)
board.cache_hierarchy.l1dcaches.StoreCondReq.accesses::processor.cores.core.data            7                       # number of StoreCondReq accesses(hits+misses) (Count)
board.cache_hierarchy.l1dcaches.StoreCondReq.accesses::total            7                       # number of StoreCondReq accesses(hits+misses) (Count)
board.cache_hierarchy.l1dcaches.SwapReq.hits::processor.cores.core.data           42                       # number of SwapReq hits (Count)
board.cache_hierarchy.l1dcaches.SwapReq.hits::total           42                       # number of SwapReq hits (Count)
board.cache_hierarchy.l1dcaches.SwapReq.misses::processor.cores.core.data            4                       # number of SwapReq misses (Count)
board.cache_hierarchy.l1dcaches.SwapReq.misses::total            4                       # number of SwapReq misses (Count)
board.cache_hierarchy.l1dcaches.SwapReq.missLatency::processor.cores.core.data        22977                       # number of SwapReq miss ticks (Tick)
board.cache_hierarchy.l1dcaches.SwapReq.missLatency::total        22977                       # number of SwapReq miss ticks (Tick)
board.cache_hierarchy.l1dcaches.SwapReq.accesses::processor.cores.core.data           46                       # number of SwapReq accesses(hits+misses) (Count)
board.cache_hierarchy.l1dcaches.SwapReq.accesses::total           46                       # number of SwapReq accesses(hits+misses) (Count)
board.cache_hierarchy.l1dcaches.SwapReq.missRate::processor.cores.core.data     0.086957                       # miss rate for SwapReq accesses (Ratio)
board.cache_hierarchy.l1dcaches.SwapReq.missRate::total     0.086957                       # miss rate for SwapReq accesses (Ratio)
board.cache_hierarchy.l1dcaches.SwapReq.avgMissLatency::processor.cores.core.data  5744.250000                       # average SwapReq miss latency ((Tick/Count))
board.cache_hierarchy.l1dcaches.SwapReq.avgMissLatency::total  5744.250000                       # average SwapReq miss latency ((Tick/Count))
board.cache_hierarchy.l1dcaches.SwapReq.mshrHits::processor.cores.core.data            1                       # number of SwapReq MSHR hits (Count)
board.cache_hierarchy.l1dcaches.SwapReq.mshrHits::total            1                       # number of SwapReq MSHR hits (Count)
board.cache_hierarchy.l1dcaches.SwapReq.mshrMisses::processor.cores.core.data            3                       # number of SwapReq MSHR misses (Count)
board.cache_hierarchy.l1dcaches.SwapReq.mshrMisses::total            3                       # number of SwapReq MSHR misses (Count)
board.cache_hierarchy.l1dcaches.SwapReq.mshrMissLatency::processor.cores.core.data        17316                       # number of SwapReq MSHR miss ticks (Tick)
board.cache_hierarchy.l1dcaches.SwapReq.mshrMissLatency::total        17316                       # number of SwapReq MSHR miss ticks (Tick)
board.cache_hierarchy.l1dcaches.SwapReq.mshrMissRate::processor.cores.core.data     0.065217                       # mshr miss rate for SwapReq accesses (Ratio)
board.cache_hierarchy.l1dcaches.SwapReq.mshrMissRate::total     0.065217                       # mshr miss rate for SwapReq accesses (Ratio)
board.cache_hierarchy.l1dcaches.SwapReq.avgMshrMissLatency::processor.cores.core.data         5772                       # average SwapReq mshr miss latency ((Tick/Count))
board.cache_hierarchy.l1dcaches.SwapReq.avgMshrMissLatency::total         5772                       # average SwapReq mshr miss latency ((Tick/Count))
board.cache_hierarchy.l1dcaches.WriteLineReq.misses::processor.cores.core.data           10                       # number of WriteLineReq misses (Count)
board.cache_hierarchy.l1dcaches.WriteLineReq.misses::total           10                       # number of WriteLineReq misses (Count)
board.cache_hierarchy.l1dcaches.WriteLineReq.missLatency::processor.cores.core.data       424907                       # number of WriteLineReq miss ticks (Tick)
board.cache_hierarchy.l1dcaches.WriteLineReq.missLatency::total       424907                       # number of WriteLineReq miss ticks (Tick)
board.cache_hierarchy.l1dcaches.WriteLineReq.accesses::processor.cores.core.data           10                       # number of WriteLineReq accesses(hits+misses) (Count)
board.cache_hierarchy.l1dcaches.WriteLineReq.accesses::total           10                       # number of WriteLineReq accesses(hits+misses) (Count)
board.cache_hierarchy.l1dcaches.WriteLineReq.missRate::processor.cores.core.data            1                       # miss rate for WriteLineReq accesses (Ratio)
board.cache_hierarchy.l1dcaches.WriteLineReq.missRate::total            1                       # miss rate for WriteLineReq accesses (Ratio)
board.cache_hierarchy.l1dcaches.WriteLineReq.avgMissLatency::processor.cores.core.data 42490.700000                       # average WriteLineReq miss latency ((Tick/Count))
board.cache_hierarchy.l1dcaches.WriteLineReq.avgMissLatency::total 42490.700000                       # average WriteLineReq miss latency ((Tick/Count))
board.cache_hierarchy.l1dcaches.WriteLineReq.mshrHits::processor.cores.core.data            4                       # number of WriteLineReq MSHR hits (Count)
board.cache_hierarchy.l1dcaches.WriteLineReq.mshrHits::total            4                       # number of WriteLineReq MSHR hits (Count)
board.cache_hierarchy.l1dcaches.WriteLineReq.mshrMisses::processor.cores.core.data            6                       # number of WriteLineReq MSHR misses (Count)
board.cache_hierarchy.l1dcaches.WriteLineReq.mshrMisses::total            6                       # number of WriteLineReq MSHR misses (Count)
board.cache_hierarchy.l1dcaches.WriteLineReq.mshrMissLatency::processor.cores.core.data        73925                       # number of WriteLineReq MSHR miss ticks (Tick)
board.cache_hierarchy.l1dcaches.WriteLineReq.mshrMissLatency::total        73925                       # number of WriteLineReq MSHR miss ticks (Tick)
board.cache_hierarchy.l1dcaches.WriteLineReq.mshrMissRate::processor.cores.core.data     0.600000                       # mshr miss rate for WriteLineReq accesses (Ratio)
board.cache_hierarchy.l1dcaches.WriteLineReq.mshrMissRate::total     0.600000                       # mshr miss rate for WriteLineReq accesses (Ratio)
board.cache_hierarchy.l1dcaches.WriteLineReq.avgMshrMissLatency::processor.cores.core.data 12320.833333                       # average WriteLineReq mshr miss latency ((Tick/Count))
board.cache_hierarchy.l1dcaches.WriteLineReq.avgMshrMissLatency::total 12320.833333                       # average WriteLineReq mshr miss latency ((Tick/Count))
board.cache_hierarchy.l1dcaches.WriteReq.hits::processor.cores.core.data      1614856                       # number of WriteReq hits (Count)
board.cache_hierarchy.l1dcaches.WriteReq.hits::total      1614856                       # number of WriteReq hits (Count)
board.cache_hierarchy.l1dcaches.WriteReq.misses::processor.cores.core.data        13517                       # number of WriteReq misses (Count)
board.cache_hierarchy.l1dcaches.WriteReq.misses::total        13517                       # number of WriteReq misses (Count)
board.cache_hierarchy.l1dcaches.WriteReq.missLatency::processor.cores.core.data    251018581                       # number of WriteReq miss ticks (Tick)
board.cache_hierarchy.l1dcaches.WriteReq.missLatency::total    251018581                       # number of WriteReq miss ticks (Tick)
board.cache_hierarchy.l1dcaches.WriteReq.accesses::processor.cores.core.data      1628373                       # number of WriteReq accesses(hits+misses) (Count)
board.cache_hierarchy.l1dcaches.WriteReq.accesses::total      1628373                       # number of WriteReq accesses(hits+misses) (Count)
board.cache_hierarchy.l1dcaches.WriteReq.missRate::processor.cores.core.data     0.008301                       # miss rate for WriteReq accesses (Ratio)
board.cache_hierarchy.l1dcaches.WriteReq.missRate::total     0.008301                       # miss rate for WriteReq accesses (Ratio)
board.cache_hierarchy.l1dcaches.WriteReq.avgMissLatency::processor.cores.core.data 18570.583783                       # average WriteReq miss latency ((Tick/Count))
board.cache_hierarchy.l1dcaches.WriteReq.avgMissLatency::total 18570.583783                       # average WriteReq miss latency ((Tick/Count))
board.cache_hierarchy.l1dcaches.WriteReq.mshrHits::processor.cores.core.data         7226                       # number of WriteReq MSHR hits (Count)
board.cache_hierarchy.l1dcaches.WriteReq.mshrHits::total         7226                       # number of WriteReq MSHR hits (Count)
board.cache_hierarchy.l1dcaches.WriteReq.mshrMisses::processor.cores.core.data         6291                       # number of WriteReq MSHR misses (Count)
board.cache_hierarchy.l1dcaches.WriteReq.mshrMisses::total         6291                       # number of WriteReq MSHR misses (Count)
board.cache_hierarchy.l1dcaches.WriteReq.mshrMissLatency::processor.cores.core.data    114324779                       # number of WriteReq MSHR miss ticks (Tick)
board.cache_hierarchy.l1dcaches.WriteReq.mshrMissLatency::total    114324779                       # number of WriteReq MSHR miss ticks (Tick)
board.cache_hierarchy.l1dcaches.WriteReq.mshrMissRate::processor.cores.core.data     0.003863                       # mshr miss rate for WriteReq accesses (Ratio)
board.cache_hierarchy.l1dcaches.WriteReq.mshrMissRate::total     0.003863                       # mshr miss rate for WriteReq accesses (Ratio)
board.cache_hierarchy.l1dcaches.WriteReq.avgMshrMissLatency::processor.cores.core.data 18172.751391                       # average WriteReq mshr miss latency ((Tick/Count))
board.cache_hierarchy.l1dcaches.WriteReq.avgMshrMissLatency::total 18172.751391                       # average WriteReq mshr miss latency ((Tick/Count))
board.cache_hierarchy.l1dcaches.power_state.pwrStateResidencyTicks::UNDEFINED   5512257225                       # Cumulative time (in ticks) in various power states (Tick)
board.cache_hierarchy.l1dcaches.prefetcher.demandMshrMisses            0                       # demands not covered by prefetchs (Count)
board.cache_hierarchy.l1dcaches.prefetcher.pfIssued       180823                       # number of hwpf issued (Count)
board.cache_hierarchy.l1dcaches.prefetcher.pfUseful            0                       # number of useful prefetch (Count)
board.cache_hierarchy.l1dcaches.prefetcher.pfUsefulButMiss            0                       # number of hit on prefetch but cache block is not in an usable state (Count)
board.cache_hierarchy.l1dcaches.prefetcher.accuracy            0                       # accuracy of the prefetcher (Count)
board.cache_hierarchy.l1dcaches.prefetcher.coverage          nan                       # coverage brought by this prefetcher (Count)
board.cache_hierarchy.l1dcaches.prefetcher.pfHitInCache        69729                       # number of prefetches hitting in cache (Count)
board.cache_hierarchy.l1dcaches.prefetcher.pfHitInMSHR         6234                       # number of prefetches hitting in a MSHR (Count)
board.cache_hierarchy.l1dcaches.prefetcher.pfHitInWB            0                       # number of prefetches hit in the Write Buffer (Count)
board.cache_hierarchy.l1dcaches.prefetcher.pfLate        75963                       # number of late prefetches (hitting in cache, MSHR or WB) (Count)
board.cache_hierarchy.l1dcaches.prefetcher.power_state.pwrStateResidencyTicks::UNDEFINED   5512257225                       # Cumulative time (in ticks) in various power states (Tick)
board.cache_hierarchy.l1dcaches.prefetcher.prefetchers0.demandMshrMisses        23958                       # demands not covered by prefetchs (Count)
board.cache_hierarchy.l1dcaches.prefetcher.prefetchers0.pfIssued        89040                       # number of hwpf issued (Count)
board.cache_hierarchy.l1dcaches.prefetcher.prefetchers0.pfUnused        46369                       # number of HardPF blocks evicted w/o reference (Count)
board.cache_hierarchy.l1dcaches.prefetcher.prefetchers0.pfUseful        12804                       # number of useful prefetch (Count)
board.cache_hierarchy.l1dcaches.prefetcher.prefetchers0.pfUsefulButMiss            0                       # number of hit on prefetch but cache block is not in an usable state (Count)
board.cache_hierarchy.l1dcaches.prefetcher.prefetchers0.accuracy     0.143801                       # accuracy of the prefetcher (Count)
board.cache_hierarchy.l1dcaches.prefetcher.prefetchers0.coverage     0.348294                       # coverage brought by this prefetcher (Count)
board.cache_hierarchy.l1dcaches.prefetcher.prefetchers0.pfHitInCache            0                       # number of prefetches hitting in cache (Count)
board.cache_hierarchy.l1dcaches.prefetcher.prefetchers0.pfHitInMSHR            0                       # number of prefetches hitting in a MSHR (Count)
board.cache_hierarchy.l1dcaches.prefetcher.prefetchers0.pfHitInWB            0                       # number of prefetches hit in the Write Buffer (Count)
board.cache_hierarchy.l1dcaches.prefetcher.prefetchers0.pfLate            0                       # number of late prefetches (hitting in cache, MSHR or WB) (Count)
board.cache_hierarchy.l1dcaches.prefetcher.prefetchers0.pfIdentified        93265                       # number of prefetch candidates identified (Count)
board.cache_hierarchy.l1dcaches.prefetcher.prefetchers0.pfBufferHit         3498                       # number of redundant prefetches already in prefetch queue (Count)
board.cache_hierarchy.l1dcaches.prefetcher.prefetchers0.pfInCache            0                       # number of redundant prefetches already in cache/mshr dropped (Count)
board.cache_hierarchy.l1dcaches.prefetcher.prefetchers0.pfRemovedDemand          416                       # number of prefetches dropped due to a demand for the same address (Count)
board.cache_hierarchy.l1dcaches.prefetcher.prefetchers0.pfRemovedFull            0                       # number of prefetches dropped due to prefetch queue size (Count)
board.cache_hierarchy.l1dcaches.prefetcher.prefetchers0.pfSpanPage         8439                       # number of prefetches that crossed the page (Count)
board.cache_hierarchy.l1dcaches.prefetcher.prefetchers0.pfUsefulSpanPage         7020                       # number of prefetches that is useful and crossed the page (Count)
board.cache_hierarchy.l1dcaches.prefetcher.prefetchers0.power_state.pwrStateResidencyTicks::UNDEFINED   5512257225                       # Cumulative time (in ticks) in various power states (Tick)
board.cache_hierarchy.l1dcaches.prefetcher.prefetchers1.demandMshrMisses        23958                       # demands not covered by prefetchs (Count)
board.cache_hierarchy.l1dcaches.prefetcher.prefetchers1.pfIssued        67547                       # number of hwpf issued (Count)
board.cache_hierarchy.l1dcaches.prefetcher.prefetchers1.pfUnused        46369                       # number of HardPF blocks evicted w/o reference (Count)
board.cache_hierarchy.l1dcaches.prefetcher.prefetchers1.pfUseful        29601                       # number of useful prefetch (Count)
board.cache_hierarchy.l1dcaches.prefetcher.prefetchers1.pfUsefulButMiss            0                       # number of hit on prefetch but cache block is not in an usable state (Count)
board.cache_hierarchy.l1dcaches.prefetcher.prefetchers1.accuracy     0.438228                       # accuracy of the prefetcher (Count)
board.cache_hierarchy.l1dcaches.prefetcher.prefetchers1.coverage     0.552680                       # coverage brought by this prefetcher (Count)
board.cache_hierarchy.l1dcaches.prefetcher.prefetchers1.pfHitInCache            0                       # number of prefetches hitting in cache (Count)
board.cache_hierarchy.l1dcaches.prefetcher.prefetchers1.pfHitInMSHR            0                       # number of prefetches hitting in a MSHR (Count)
board.cache_hierarchy.l1dcaches.prefetcher.prefetchers1.pfHitInWB            0                       # number of prefetches hit in the Write Buffer (Count)
board.cache_hierarchy.l1dcaches.prefetcher.prefetchers1.pfLate            0                       # number of late prefetches (hitting in cache, MSHR or WB) (Count)
board.cache_hierarchy.l1dcaches.prefetcher.prefetchers1.pfIdentified       382422                       # number of prefetch candidates identified (Count)
board.cache_hierarchy.l1dcaches.prefetcher.prefetchers1.pfBufferHit        29160                       # number of redundant prefetches already in prefetch queue (Count)
board.cache_hierarchy.l1dcaches.prefetcher.prefetchers1.pfInCache       268184                       # number of redundant prefetches already in cache/mshr dropped (Count)
board.cache_hierarchy.l1dcaches.prefetcher.prefetchers1.pfRemovedDemand          379                       # number of prefetches dropped due to a demand for the same address (Count)
board.cache_hierarchy.l1dcaches.prefetcher.prefetchers1.pfRemovedFull        13285                       # number of prefetches dropped due to prefetch queue size (Count)
board.cache_hierarchy.l1dcaches.prefetcher.prefetchers1.pfSpanPage            0                       # number of prefetches that crossed the page (Count)
board.cache_hierarchy.l1dcaches.prefetcher.prefetchers1.pfUsefulSpanPage            0                       # number of prefetches that is useful and crossed the page (Count)
board.cache_hierarchy.l1dcaches.prefetcher.prefetchers1.power_state.pwrStateResidencyTicks::UNDEFINED   5512257225                       # Cumulative time (in ticks) in various power states (Tick)
board.cache_hierarchy.l1dcaches.prefetcher.prefetchers2.demandMshrMisses        23958                       # demands not covered by prefetchs (Count)
board.cache_hierarchy.l1dcaches.prefetcher.prefetchers2.pfIssued        24236                       # number of hwpf issued (Count)
board.cache_hierarchy.l1dcaches.prefetcher.prefetchers2.pfUnused        46369                       # number of HardPF blocks evicted w/o reference (Count)
board.cache_hierarchy.l1dcaches.prefetcher.prefetchers2.pfUseful        14663                       # number of useful prefetch (Count)
board.cache_hierarchy.l1dcaches.prefetcher.prefetchers2.pfUsefulButMiss            0                       # number of hit on prefetch but cache block is not in an usable state (Count)
board.cache_hierarchy.l1dcaches.prefetcher.prefetchers2.accuracy     0.605009                       # accuracy of the prefetcher (Count)
board.cache_hierarchy.l1dcaches.prefetcher.prefetchers2.coverage     0.379664                       # coverage brought by this prefetcher (Count)
board.cache_hierarchy.l1dcaches.prefetcher.prefetchers2.pfHitInCache            0                       # number of prefetches hitting in cache (Count)
board.cache_hierarchy.l1dcaches.prefetcher.prefetchers2.pfHitInMSHR            0                       # number of prefetches hitting in a MSHR (Count)
board.cache_hierarchy.l1dcaches.prefetcher.prefetchers2.pfHitInWB            0                       # number of prefetches hit in the Write Buffer (Count)
board.cache_hierarchy.l1dcaches.prefetcher.prefetchers2.pfLate            0                       # number of late prefetches (hitting in cache, MSHR or WB) (Count)
board.cache_hierarchy.l1dcaches.prefetcher.prefetchers2.pfIdentified        89328                       # number of prefetch candidates identified (Count)
board.cache_hierarchy.l1dcaches.prefetcher.prefetchers2.pfBufferHit          219                       # number of redundant prefetches already in prefetch queue (Count)
board.cache_hierarchy.l1dcaches.prefetcher.prefetchers2.pfInCache        59053                       # number of redundant prefetches already in cache/mshr dropped (Count)
board.cache_hierarchy.l1dcaches.prefetcher.prefetchers2.pfRemovedDemand          160                       # number of prefetches dropped due to a demand for the same address (Count)
board.cache_hierarchy.l1dcaches.prefetcher.prefetchers2.pfRemovedFull          130                       # number of prefetches dropped due to prefetch queue size (Count)
board.cache_hierarchy.l1dcaches.prefetcher.prefetchers2.pfSpanPage         4345                       # number of prefetches that crossed the page (Count)
board.cache_hierarchy.l1dcaches.prefetcher.prefetchers2.pfUsefulSpanPage          690                       # number of prefetches that is useful and crossed the page (Count)
board.cache_hierarchy.l1dcaches.prefetcher.prefetchers2.power_state.pwrStateResidencyTicks::UNDEFINED   5512257225                       # Cumulative time (in ticks) in various power states (Tick)
board.cache_hierarchy.l1dcaches.tags.tagsInUse  1017.682395                       # Average ticks per tags in use ((Tick/Count))
board.cache_hierarchy.l1dcaches.tags.totalRefs      7726000                       # Total number of references to valid blocks. (Count)
board.cache_hierarchy.l1dcaches.tags.sampledRefs       128819                       # Sample count of references to valid blocks. (Count)
board.cache_hierarchy.l1dcaches.tags.avgRefs    59.975625                       # Average number of references to valid blocks. ((Count/Count))
board.cache_hierarchy.l1dcaches.tags.warmupTick       158841                       # The tick when the warmup percentage was hit. (Tick)
board.cache_hierarchy.l1dcaches.tags.occupancies::cache_hierarchy.l1dcaches.prefetcher.prefetchers0   139.872568                       # Average occupied blocks per tick, per requestor ((Count/Tick))
board.cache_hierarchy.l1dcaches.tags.occupancies::cache_hierarchy.l1dcaches.prefetcher.prefetchers1   294.099889                       # Average occupied blocks per tick, per requestor ((Count/Tick))
board.cache_hierarchy.l1dcaches.tags.occupancies::cache_hierarchy.l1dcaches.prefetcher.prefetchers2   354.833043                       # Average occupied blocks per tick, per requestor ((Count/Tick))
board.cache_hierarchy.l1dcaches.tags.occupancies::processor.cores.core.data   228.876895                       # Average occupied blocks per tick, per requestor ((Count/Tick))
board.cache_hierarchy.l1dcaches.tags.avgOccs::cache_hierarchy.l1dcaches.prefetcher.prefetchers0     0.136594                       # Average percentage of cache occupancy ((Ratio/Tick))
board.cache_hierarchy.l1dcaches.tags.avgOccs::cache_hierarchy.l1dcaches.prefetcher.prefetchers1     0.287207                       # Average percentage of cache occupancy ((Ratio/Tick))
board.cache_hierarchy.l1dcaches.tags.avgOccs::cache_hierarchy.l1dcaches.prefetcher.prefetchers2     0.346517                       # Average percentage of cache occupancy ((Ratio/Tick))
board.cache_hierarchy.l1dcaches.tags.avgOccs::processor.cores.core.data     0.223513                       # Average percentage of cache occupancy ((Ratio/Tick))
board.cache_hierarchy.l1dcaches.tags.avgOccs::total     0.993830                       # Average percentage of cache occupancy ((Ratio/Tick))
board.cache_hierarchy.l1dcaches.tags.occupanciesTaskId::1022          822                       # Occupied blocks per task id (Count)
board.cache_hierarchy.l1dcaches.tags.occupanciesTaskId::1024          202                       # Occupied blocks per task id (Count)
board.cache_hierarchy.l1dcaches.tags.ageTaskId_1022::0          128                       # Occupied blocks per task id, per block age (Count)
board.cache_hierarchy.l1dcaches.tags.ageTaskId_1022::1          636                       # Occupied blocks per task id, per block age (Count)
board.cache_hierarchy.l1dcaches.tags.ageTaskId_1022::2            6                       # Occupied blocks per task id, per block age (Count)
board.cache_hierarchy.l1dcaches.tags.ageTaskId_1022::3           52                       # Occupied blocks per task id, per block age (Count)
board.cache_hierarchy.l1dcaches.tags.ageTaskId_1024::0           99                       # Occupied blocks per task id, per block age (Count)
board.cache_hierarchy.l1dcaches.tags.ageTaskId_1024::1           78                       # Occupied blocks per task id, per block age (Count)
board.cache_hierarchy.l1dcaches.tags.ageTaskId_1024::2           11                       # Occupied blocks per task id, per block age (Count)
board.cache_hierarchy.l1dcaches.tags.ageTaskId_1024::3           14                       # Occupied blocks per task id, per block age (Count)
board.cache_hierarchy.l1dcaches.tags.ratioOccsTaskId::1022     0.802734                       # Ratio of occupied blocks and all blocks, per task id (Ratio)
board.cache_hierarchy.l1dcaches.tags.ratioOccsTaskId::1024     0.197266                       # Ratio of occupied blocks and all blocks, per task id (Ratio)
board.cache_hierarchy.l1dcaches.tags.tagAccesses     61562227                       # Number of tag accesses (Count)
board.cache_hierarchy.l1dcaches.tags.dataAccesses     61562227                       # Number of data accesses (Count)
board.cache_hierarchy.l1dcaches.tags.power_state.pwrStateResidencyTicks::UNDEFINED   5512257225                       # Cumulative time (in ticks) in various power states (Tick)
board.cache_hierarchy.l1icaches.demandHits::processor.cores.core.inst      5150318                       # number of demand (read+write) hits (Count)
board.cache_hierarchy.l1icaches.demandHits::total      5150318                       # number of demand (read+write) hits (Count)
board.cache_hierarchy.l1icaches.overallHits::processor.cores.core.inst      5150318                       # number of overall hits (Count)
board.cache_hierarchy.l1icaches.overallHits::total      5150318                       # number of overall hits (Count)
board.cache_hierarchy.l1icaches.demandMisses::processor.cores.core.inst         1706                       # number of demand (read+write) misses (Count)
board.cache_hierarchy.l1icaches.demandMisses::total         1706                       # number of demand (read+write) misses (Count)
board.cache_hierarchy.l1icaches.overallMisses::processor.cores.core.inst         1706                       # number of overall misses (Count)
board.cache_hierarchy.l1icaches.overallMisses::total         1706                       # number of overall misses (Count)
board.cache_hierarchy.l1icaches.demandMissLatency::processor.cores.core.inst     54332946                       # number of demand (read+write) miss ticks (Tick)
board.cache_hierarchy.l1icaches.demandMissLatency::total     54332946                       # number of demand (read+write) miss ticks (Tick)
board.cache_hierarchy.l1icaches.overallMissLatency::processor.cores.core.inst     54332946                       # number of overall miss ticks (Tick)
board.cache_hierarchy.l1icaches.overallMissLatency::total     54332946                       # number of overall miss ticks (Tick)
board.cache_hierarchy.l1icaches.demandAccesses::processor.cores.core.inst      5152024                       # number of demand (read+write) accesses (Count)
board.cache_hierarchy.l1icaches.demandAccesses::total      5152024                       # number of demand (read+write) accesses (Count)
board.cache_hierarchy.l1icaches.overallAccesses::processor.cores.core.inst      5152024                       # number of overall (read+write) accesses (Count)
board.cache_hierarchy.l1icaches.overallAccesses::total      5152024                       # number of overall (read+write) accesses (Count)
board.cache_hierarchy.l1icaches.demandMissRate::processor.cores.core.inst     0.000331                       # miss rate for demand accesses (Ratio)
board.cache_hierarchy.l1icaches.demandMissRate::total     0.000331                       # miss rate for demand accesses (Ratio)
board.cache_hierarchy.l1icaches.overallMissRate::processor.cores.core.inst     0.000331                       # miss rate for overall accesses (Ratio)
board.cache_hierarchy.l1icaches.overallMissRate::total     0.000331                       # miss rate for overall accesses (Ratio)
board.cache_hierarchy.l1icaches.demandAvgMissLatency::processor.cores.core.inst 31848.151231                       # average overall miss latency in ticks ((Tick/Count))
board.cache_hierarchy.l1icaches.demandAvgMissLatency::total 31848.151231                       # average overall miss latency in ticks ((Tick/Count))
board.cache_hierarchy.l1icaches.overallAvgMissLatency::processor.cores.core.inst 31848.151231                       # average overall miss latency ((Tick/Count))
board.cache_hierarchy.l1icaches.overallAvgMissLatency::total 31848.151231                       # average overall miss latency ((Tick/Count))
board.cache_hierarchy.l1icaches.blockedCycles::no_mshrs          374                       # number of cycles access was blocked (Cycle)
board.cache_hierarchy.l1icaches.blockedCycles::no_wbuffers            0                       # number of cycles access was blocked (Cycle)
board.cache_hierarchy.l1icaches.blockedCycles::no_targets          401                       # number of cycles access was blocked (Cycle)
board.cache_hierarchy.l1icaches.blockedCauses::no_mshrs           22                       # number of times access was blocked (Count)
board.cache_hierarchy.l1icaches.blockedCauses::no_wbuffers            0                       # number of times access was blocked (Count)
board.cache_hierarchy.l1icaches.blockedCauses::no_targets            2                       # number of times access was blocked (Count)
board.cache_hierarchy.l1icaches.avgBlocked::no_mshrs           17                       # average number of cycles each access was blocked ((Cycle/Count))
board.cache_hierarchy.l1icaches.avgBlocked::no_wbuffers          nan                       # average number of cycles each access was blocked ((Cycle/Count))
board.cache_hierarchy.l1icaches.avgBlocked::no_targets   200.500000                       # average number of cycles each access was blocked ((Cycle/Count))
board.cache_hierarchy.l1icaches.writebacks::writebacks         7095                       # number of writebacks (Count)
board.cache_hierarchy.l1icaches.writebacks::total         7095                       # number of writebacks (Count)
board.cache_hierarchy.l1icaches.demandMshrHits::processor.cores.core.inst         1074                       # number of demand (read+write) MSHR hits (Count)
board.cache_hierarchy.l1icaches.demandMshrHits::total         1074                       # number of demand (read+write) MSHR hits (Count)
board.cache_hierarchy.l1icaches.overallMshrHits::processor.cores.core.inst         1074                       # number of overall MSHR hits (Count)
board.cache_hierarchy.l1icaches.overallMshrHits::total         1074                       # number of overall MSHR hits (Count)
board.cache_hierarchy.l1icaches.demandMshrMisses::processor.cores.core.inst          632                       # number of demand (read+write) MSHR misses (Count)
board.cache_hierarchy.l1icaches.demandMshrMisses::total          632                       # number of demand (read+write) MSHR misses (Count)
board.cache_hierarchy.l1icaches.overallMshrMisses::processor.cores.core.inst          632                       # number of overall MSHR misses (Count)
board.cache_hierarchy.l1icaches.overallMshrMisses::cache_hierarchy.l1icaches.prefetcher.prefetchers0         6595                       # number of overall MSHR misses (Count)
board.cache_hierarchy.l1icaches.overallMshrMisses::cache_hierarchy.l1icaches.prefetcher.prefetchers1          902                       # number of overall MSHR misses (Count)
board.cache_hierarchy.l1icaches.overallMshrMisses::total         8129                       # number of overall MSHR misses (Count)
board.cache_hierarchy.l1icaches.demandMshrMissLatency::processor.cores.core.inst     34015617                       # number of demand (read+write) MSHR miss ticks (Tick)
board.cache_hierarchy.l1icaches.demandMshrMissLatency::total     34015617                       # number of demand (read+write) MSHR miss ticks (Tick)
board.cache_hierarchy.l1icaches.overallMshrMissLatency::processor.cores.core.inst     34015617                       # number of overall MSHR miss ticks (Tick)
board.cache_hierarchy.l1icaches.overallMshrMissLatency::cache_hierarchy.l1icaches.prefetcher.prefetchers0    405432596                       # number of overall MSHR miss ticks (Tick)
board.cache_hierarchy.l1icaches.overallMshrMissLatency::cache_hierarchy.l1icaches.prefetcher.prefetchers1     40825496                       # number of overall MSHR miss ticks (Tick)
board.cache_hierarchy.l1icaches.overallMshrMissLatency::total    480273709                       # number of overall MSHR miss ticks (Tick)
board.cache_hierarchy.l1icaches.demandMshrMissRate::processor.cores.core.inst     0.000123                       # mshr miss ratio for demand accesses (Ratio)
board.cache_hierarchy.l1icaches.demandMshrMissRate::total     0.000123                       # mshr miss ratio for demand accesses (Ratio)
board.cache_hierarchy.l1icaches.overallMshrMissRate::processor.cores.core.inst     0.000123                       # mshr miss ratio for overall accesses (Ratio)
board.cache_hierarchy.l1icaches.overallMshrMissRate::cache_hierarchy.l1icaches.prefetcher.prefetchers0          inf                       # mshr miss ratio for overall accesses (Ratio)
board.cache_hierarchy.l1icaches.overallMshrMissRate::cache_hierarchy.l1icaches.prefetcher.prefetchers1          inf                       # mshr miss ratio for overall accesses (Ratio)
board.cache_hierarchy.l1icaches.overallMshrMissRate::total     0.001578                       # mshr miss ratio for overall accesses (Ratio)
board.cache_hierarchy.l1icaches.demandAvgMshrMissLatency::processor.cores.core.inst 53822.178797                       # average overall mshr miss latency ((Tick/Count))
board.cache_hierarchy.l1icaches.demandAvgMshrMissLatency::total 53822.178797                       # average overall mshr miss latency ((Tick/Count))
board.cache_hierarchy.l1icaches.overallAvgMshrMissLatency::processor.cores.core.inst 53822.178797                       # average overall mshr miss latency ((Tick/Count))
board.cache_hierarchy.l1icaches.overallAvgMshrMissLatency::cache_hierarchy.l1icaches.prefetcher.prefetchers0 61475.753753                       # average overall mshr miss latency ((Tick/Count))
board.cache_hierarchy.l1icaches.overallAvgMshrMissLatency::cache_hierarchy.l1icaches.prefetcher.prefetchers1 45261.082040                       # average overall mshr miss latency ((Tick/Count))
board.cache_hierarchy.l1icaches.overallAvgMshrMissLatency::total 59081.524050                       # average overall mshr miss latency ((Tick/Count))
board.cache_hierarchy.l1icaches.replacements         7095                       # number of replacements (Count)
board.cache_hierarchy.l1icaches.HardPFReq.mshrMisses::cache_hierarchy.l1icaches.prefetcher.prefetchers0         6595                       # number of HardPFReq MSHR misses (Count)
board.cache_hierarchy.l1icaches.HardPFReq.mshrMisses::cache_hierarchy.l1icaches.prefetcher.prefetchers1          902                       # number of HardPFReq MSHR misses (Count)
board.cache_hierarchy.l1icaches.HardPFReq.mshrMisses::total         7497                       # number of HardPFReq MSHR misses (Count)
board.cache_hierarchy.l1icaches.HardPFReq.mshrMissLatency::cache_hierarchy.l1icaches.prefetcher.prefetchers0    405432596                       # number of HardPFReq MSHR miss ticks (Tick)
board.cache_hierarchy.l1icaches.HardPFReq.mshrMissLatency::cache_hierarchy.l1icaches.prefetcher.prefetchers1     40825496                       # number of HardPFReq MSHR miss ticks (Tick)
board.cache_hierarchy.l1icaches.HardPFReq.mshrMissLatency::total    446258092                       # number of HardPFReq MSHR miss ticks (Tick)
board.cache_hierarchy.l1icaches.HardPFReq.mshrMissRate::cache_hierarchy.l1icaches.prefetcher.prefetchers0          inf                       # mshr miss rate for HardPFReq accesses (Ratio)
board.cache_hierarchy.l1icaches.HardPFReq.mshrMissRate::cache_hierarchy.l1icaches.prefetcher.prefetchers1          inf                       # mshr miss rate for HardPFReq accesses (Ratio)
board.cache_hierarchy.l1icaches.HardPFReq.mshrMissRate::total          inf                       # mshr miss rate for HardPFReq accesses (Ratio)
board.cache_hierarchy.l1icaches.HardPFReq.avgMshrMissLatency::cache_hierarchy.l1icaches.prefetcher.prefetchers0 61475.753753                       # average HardPFReq mshr miss latency ((Tick/Count))
board.cache_hierarchy.l1icaches.HardPFReq.avgMshrMissLatency::cache_hierarchy.l1icaches.prefetcher.prefetchers1 45261.082040                       # average HardPFReq mshr miss latency ((Tick/Count))
board.cache_hierarchy.l1icaches.HardPFReq.avgMshrMissLatency::total 59524.888889                       # average HardPFReq mshr miss latency ((Tick/Count))
board.cache_hierarchy.l1icaches.ReadReq.hits::processor.cores.core.inst      5150318                       # number of ReadReq hits (Count)
board.cache_hierarchy.l1icaches.ReadReq.hits::total      5150318                       # number of ReadReq hits (Count)
board.cache_hierarchy.l1icaches.ReadReq.misses::processor.cores.core.inst         1706                       # number of ReadReq misses (Count)
board.cache_hierarchy.l1icaches.ReadReq.misses::total         1706                       # number of ReadReq misses (Count)
board.cache_hierarchy.l1icaches.ReadReq.missLatency::processor.cores.core.inst     54332946                       # number of ReadReq miss ticks (Tick)
board.cache_hierarchy.l1icaches.ReadReq.missLatency::total     54332946                       # number of ReadReq miss ticks (Tick)
board.cache_hierarchy.l1icaches.ReadReq.accesses::processor.cores.core.inst      5152024                       # number of ReadReq accesses(hits+misses) (Count)
board.cache_hierarchy.l1icaches.ReadReq.accesses::total      5152024                       # number of ReadReq accesses(hits+misses) (Count)
board.cache_hierarchy.l1icaches.ReadReq.missRate::processor.cores.core.inst     0.000331                       # miss rate for ReadReq accesses (Ratio)
board.cache_hierarchy.l1icaches.ReadReq.missRate::total     0.000331                       # miss rate for ReadReq accesses (Ratio)
board.cache_hierarchy.l1icaches.ReadReq.avgMissLatency::processor.cores.core.inst 31848.151231                       # average ReadReq miss latency ((Tick/Count))
board.cache_hierarchy.l1icaches.ReadReq.avgMissLatency::total 31848.151231                       # average ReadReq miss latency ((Tick/Count))
board.cache_hierarchy.l1icaches.ReadReq.mshrHits::processor.cores.core.inst         1074                       # number of ReadReq MSHR hits (Count)
board.cache_hierarchy.l1icaches.ReadReq.mshrHits::total         1074                       # number of ReadReq MSHR hits (Count)
board.cache_hierarchy.l1icaches.ReadReq.mshrMisses::processor.cores.core.inst          632                       # number of ReadReq MSHR misses (Count)
board.cache_hierarchy.l1icaches.ReadReq.mshrMisses::total          632                       # number of ReadReq MSHR misses (Count)
board.cache_hierarchy.l1icaches.ReadReq.mshrMissLatency::processor.cores.core.inst     34015617                       # number of ReadReq MSHR miss ticks (Tick)
board.cache_hierarchy.l1icaches.ReadReq.mshrMissLatency::total     34015617                       # number of ReadReq MSHR miss ticks (Tick)
board.cache_hierarchy.l1icaches.ReadReq.mshrMissRate::processor.cores.core.inst     0.000123                       # mshr miss rate for ReadReq accesses (Ratio)
board.cache_hierarchy.l1icaches.ReadReq.mshrMissRate::total     0.000123                       # mshr miss rate for ReadReq accesses (Ratio)
board.cache_hierarchy.l1icaches.ReadReq.avgMshrMissLatency::processor.cores.core.inst 53822.178797                       # average ReadReq mshr miss latency ((Tick/Count))
board.cache_hierarchy.l1icaches.ReadReq.avgMshrMissLatency::total 53822.178797                       # average ReadReq mshr miss latency ((Tick/Count))
board.cache_hierarchy.l1icaches.power_state.pwrStateResidencyTicks::UNDEFINED   5512257225                       # Cumulative time (in ticks) in various power states (Tick)
board.cache_hierarchy.l1icaches.prefetcher.demandMshrMisses            0                       # demands not covered by prefetchs (Count)
board.cache_hierarchy.l1icaches.prefetcher.pfIssued        10708                       # number of hwpf issued (Count)
board.cache_hierarchy.l1icaches.prefetcher.pfUseful            0                       # number of useful prefetch (Count)
board.cache_hierarchy.l1icaches.prefetcher.pfUsefulButMiss            0                       # number of hit on prefetch but cache block is not in an usable state (Count)
board.cache_hierarchy.l1icaches.prefetcher.accuracy            0                       # accuracy of the prefetcher (Count)
board.cache_hierarchy.l1icaches.prefetcher.coverage          nan                       # coverage brought by this prefetcher (Count)
board.cache_hierarchy.l1icaches.prefetcher.pfHitInCache         1032                       # number of prefetches hitting in cache (Count)
board.cache_hierarchy.l1icaches.prefetcher.pfHitInMSHR         2179                       # number of prefetches hitting in a MSHR (Count)
board.cache_hierarchy.l1icaches.prefetcher.pfHitInWB            0                       # number of prefetches hit in the Write Buffer (Count)
board.cache_hierarchy.l1icaches.prefetcher.pfLate         3211                       # number of late prefetches (hitting in cache, MSHR or WB) (Count)
board.cache_hierarchy.l1icaches.prefetcher.power_state.pwrStateResidencyTicks::UNDEFINED   5512257225                       # Cumulative time (in ticks) in various power states (Tick)
board.cache_hierarchy.l1icaches.prefetcher.prefetchers0.demandMshrMisses          632                       # demands not covered by prefetchs (Count)
board.cache_hierarchy.l1icaches.prefetcher.prefetchers0.pfIssued         7486                       # number of hwpf issued (Count)
board.cache_hierarchy.l1icaches.prefetcher.prefetchers0.pfUnused         4377                       # number of HardPF blocks evicted w/o reference (Count)
board.cache_hierarchy.l1icaches.prefetcher.prefetchers0.pfUseful         1604                       # number of useful prefetch (Count)
board.cache_hierarchy.l1icaches.prefetcher.prefetchers0.pfUsefulButMiss            0                       # number of hit on prefetch but cache block is not in an usable state (Count)
board.cache_hierarchy.l1icaches.prefetcher.prefetchers0.accuracy     0.214267                       # accuracy of the prefetcher (Count)
board.cache_hierarchy.l1icaches.prefetcher.prefetchers0.coverage     0.717352                       # coverage brought by this prefetcher (Count)
board.cache_hierarchy.l1icaches.prefetcher.prefetchers0.pfHitInCache            0                       # number of prefetches hitting in cache (Count)
board.cache_hierarchy.l1icaches.prefetcher.prefetchers0.pfHitInMSHR            0                       # number of prefetches hitting in a MSHR (Count)
board.cache_hierarchy.l1icaches.prefetcher.prefetchers0.pfHitInWB            0                       # number of prefetches hit in the Write Buffer (Count)
board.cache_hierarchy.l1icaches.prefetcher.prefetchers0.pfLate            0                       # number of late prefetches (hitting in cache, MSHR or WB) (Count)
board.cache_hierarchy.l1icaches.prefetcher.prefetchers0.fdipInsertions            0                       # Number of notifications from an insertion in the FTQ (Count)
board.cache_hierarchy.l1icaches.prefetcher.prefetchers0.pfIdentified     20056764                       # Number of prefetches identified. (Count)
board.cache_hierarchy.l1icaches.prefetcher.prefetchers0.pfSquashed        32195                       # Number of prefetches squashed. (Count)
board.cache_hierarchy.l1icaches.prefetcher.prefetchers0.pfInPFQ        34160                       # Number of prefetches hit in the prefetch queue (Count)
board.cache_hierarchy.l1icaches.prefetcher.prefetchers0.pfInTQ            0                       # Number of prefetches hit in the translation queue (Count)
board.cache_hierarchy.l1icaches.prefetcher.prefetchers0.pfInCache     20015474                       # Number of prefetches hit in in cache (Count)
board.cache_hierarchy.l1icaches.prefetcher.prefetchers0.pfInCachePrefetched            0                       # Number of prefetches hit in cache but prefetched (Count)
board.cache_hierarchy.l1icaches.prefetcher.prefetchers0.pfPacketsCreated        39681                       # Number of prefetch packets created (Count)
board.cache_hierarchy.l1icaches.prefetcher.prefetchers0.pfCandidatesAdded        39681                       # Number of prefetch candidates added to the prefetch queue (Count)
board.cache_hierarchy.l1icaches.prefetcher.prefetchers0.translationFail         1609                       # Number of prefetches that failed translation (Count)
board.cache_hierarchy.l1icaches.prefetcher.prefetchers0.translationSuccess     20055155                       # Number of prefetches that succeeded translation (Count)
board.cache_hierarchy.l1icaches.prefetcher.prefetchers0.pfqSizeDistAtNotify::samples     20056764                       # Distribution of the prefetch queue size at the time of notification of a new fetch target (Count)
board.cache_hierarchy.l1icaches.prefetcher.prefetchers0.pfqSizeDistAtNotify::mean     0.027158                       # Distribution of the prefetch queue size at the time of notification of a new fetch target (Count)
board.cache_hierarchy.l1icaches.prefetcher.prefetchers0.pfqSizeDistAtNotify::stdev     0.672475                       # Distribution of the prefetch queue size at the time of notification of a new fetch target (Count)
board.cache_hierarchy.l1icaches.prefetcher.prefetchers0.pfqSizeDistAtNotify::underflows            0      0.00%      0.00% # Distribution of the prefetch queue size at the time of notification of a new fetch target (Count)
board.cache_hierarchy.l1icaches.prefetcher.prefetchers0.pfqSizeDistAtNotify::0-3     20017682     99.81%     99.81% # Distribution of the prefetch queue size at the time of notification of a new fetch target (Count)
board.cache_hierarchy.l1icaches.prefetcher.prefetchers0.pfqSizeDistAtNotify::4-7        10831      0.05%     99.86% # Distribution of the prefetch queue size at the time of notification of a new fetch target (Count)
board.cache_hierarchy.l1icaches.prefetcher.prefetchers0.pfqSizeDistAtNotify::8-11         8347      0.04%     99.90% # Distribution of the prefetch queue size at the time of notification of a new fetch target (Count)
board.cache_hierarchy.l1icaches.prefetcher.prefetchers0.pfqSizeDistAtNotify::12-15         6447      0.03%     99.93% # Distribution of the prefetch queue size at the time of notification of a new fetch target (Count)
board.cache_hierarchy.l1icaches.prefetcher.prefetchers0.pfqSizeDistAtNotify::16-19         5215      0.03%     99.96% # Distribution of the prefetch queue size at the time of notification of a new fetch target (Count)
board.cache_hierarchy.l1icaches.prefetcher.prefetchers0.pfqSizeDistAtNotify::20-23         3741      0.02%     99.98% # Distribution of the prefetch queue size at the time of notification of a new fetch target (Count)
board.cache_hierarchy.l1icaches.prefetcher.prefetchers0.pfqSizeDistAtNotify::24-27         2508      0.01%     99.99% # Distribution of the prefetch queue size at the time of notification of a new fetch target (Count)
board.cache_hierarchy.l1icaches.prefetcher.prefetchers0.pfqSizeDistAtNotify::28-31         1310      0.01%    100.00% # Distribution of the prefetch queue size at the time of notification of a new fetch target (Count)
board.cache_hierarchy.l1icaches.prefetcher.prefetchers0.pfqSizeDistAtNotify::32-35          682      0.00%    100.00% # Distribution of the prefetch queue size at the time of notification of a new fetch target (Count)
board.cache_hierarchy.l1icaches.prefetcher.prefetchers0.pfqSizeDistAtNotify::36-39            1      0.00%    100.00% # Distribution of the prefetch queue size at the time of notification of a new fetch target (Count)
board.cache_hierarchy.l1icaches.prefetcher.prefetchers0.pfqSizeDistAtNotify::40-43            0      0.00%    100.00% # Distribution of the prefetch queue size at the time of notification of a new fetch target (Count)
board.cache_hierarchy.l1icaches.prefetcher.prefetchers0.pfqSizeDistAtNotify::44-47            0      0.00%    100.00% # Distribution of the prefetch queue size at the time of notification of a new fetch target (Count)
board.cache_hierarchy.l1icaches.prefetcher.prefetchers0.pfqSizeDistAtNotify::48-51            0      0.00%    100.00% # Distribution of the prefetch queue size at the time of notification of a new fetch target (Count)
board.cache_hierarchy.l1icaches.prefetcher.prefetchers0.pfqSizeDistAtNotify::52-55            0      0.00%    100.00% # Distribution of the prefetch queue size at the time of notification of a new fetch target (Count)
board.cache_hierarchy.l1icaches.prefetcher.prefetchers0.pfqSizeDistAtNotify::56-59            0      0.00%    100.00% # Distribution of the prefetch queue size at the time of notification of a new fetch target (Count)
board.cache_hierarchy.l1icaches.prefetcher.prefetchers0.pfqSizeDistAtNotify::60-63            0      0.00%    100.00% # Distribution of the prefetch queue size at the time of notification of a new fetch target (Count)
board.cache_hierarchy.l1icaches.prefetcher.prefetchers0.pfqSizeDistAtNotify::64            0      0.00%    100.00% # Distribution of the prefetch queue size at the time of notification of a new fetch target (Count)
board.cache_hierarchy.l1icaches.prefetcher.prefetchers0.pfqSizeDistAtNotify::overflows            0      0.00%    100.00% # Distribution of the prefetch queue size at the time of notification of a new fetch target (Count)
board.cache_hierarchy.l1icaches.prefetcher.prefetchers0.pfqSizeDistAtNotify::min_value            0                       # Distribution of the prefetch queue size at the time of notification of a new fetch target (Count)
board.cache_hierarchy.l1icaches.prefetcher.prefetchers0.pfqSizeDistAtNotify::max_value           36                       # Distribution of the prefetch queue size at the time of notification of a new fetch target (Count)
board.cache_hierarchy.l1icaches.prefetcher.prefetchers0.pfqSizeDistAtNotify::total     20056764                       # Distribution of the prefetch queue size at the time of notification of a new fetch target (Count)
board.cache_hierarchy.l1icaches.prefetcher.prefetchers0.tqSizeDistAtNotify::samples     20056764                       # Distribution of the translation queue size at the time of notification of a new fetch target (Count)
board.cache_hierarchy.l1icaches.prefetcher.prefetchers0.tqSizeDistAtNotify::mean            0                       # Distribution of the translation queue size at the time of notification of a new fetch target (Count)
board.cache_hierarchy.l1icaches.prefetcher.prefetchers0.tqSizeDistAtNotify::stdev            0                       # Distribution of the translation queue size at the time of notification of a new fetch target (Count)
board.cache_hierarchy.l1icaches.prefetcher.prefetchers0.tqSizeDistAtNotify::underflows            0      0.00%      0.00% # Distribution of the translation queue size at the time of notification of a new fetch target (Count)
board.cache_hierarchy.l1icaches.prefetcher.prefetchers0.tqSizeDistAtNotify::0-3     20056764    100.00%    100.00% # Distribution of the translation queue size at the time of notification of a new fetch target (Count)
board.cache_hierarchy.l1icaches.prefetcher.prefetchers0.tqSizeDistAtNotify::4-7            0      0.00%    100.00% # Distribution of the translation queue size at the time of notification of a new fetch target (Count)
board.cache_hierarchy.l1icaches.prefetcher.prefetchers0.tqSizeDistAtNotify::8-11            0      0.00%    100.00% # Distribution of the translation queue size at the time of notification of a new fetch target (Count)
board.cache_hierarchy.l1icaches.prefetcher.prefetchers0.tqSizeDistAtNotify::12-15            0      0.00%    100.00% # Distribution of the translation queue size at the time of notification of a new fetch target (Count)
board.cache_hierarchy.l1icaches.prefetcher.prefetchers0.tqSizeDistAtNotify::16-19            0      0.00%    100.00% # Distribution of the translation queue size at the time of notification of a new fetch target (Count)
board.cache_hierarchy.l1icaches.prefetcher.prefetchers0.tqSizeDistAtNotify::20-23            0      0.00%    100.00% # Distribution of the translation queue size at the time of notification of a new fetch target (Count)
board.cache_hierarchy.l1icaches.prefetcher.prefetchers0.tqSizeDistAtNotify::24-27            0      0.00%    100.00% # Distribution of the translation queue size at the time of notification of a new fetch target (Count)
board.cache_hierarchy.l1icaches.prefetcher.prefetchers0.tqSizeDistAtNotify::28-31            0      0.00%    100.00% # Distribution of the translation queue size at the time of notification of a new fetch target (Count)
board.cache_hierarchy.l1icaches.prefetcher.prefetchers0.tqSizeDistAtNotify::32-35            0      0.00%    100.00% # Distribution of the translation queue size at the time of notification of a new fetch target (Count)
board.cache_hierarchy.l1icaches.prefetcher.prefetchers0.tqSizeDistAtNotify::36-39            0      0.00%    100.00% # Distribution of the translation queue size at the time of notification of a new fetch target (Count)
board.cache_hierarchy.l1icaches.prefetcher.prefetchers0.tqSizeDistAtNotify::40-43            0      0.00%    100.00% # Distribution of the translation queue size at the time of notification of a new fetch target (Count)
board.cache_hierarchy.l1icaches.prefetcher.prefetchers0.tqSizeDistAtNotify::44-47            0      0.00%    100.00% # Distribution of the translation queue size at the time of notification of a new fetch target (Count)
board.cache_hierarchy.l1icaches.prefetcher.prefetchers0.tqSizeDistAtNotify::48-51            0      0.00%    100.00% # Distribution of the translation queue size at the time of notification of a new fetch target (Count)
board.cache_hierarchy.l1icaches.prefetcher.prefetchers0.tqSizeDistAtNotify::52-55            0      0.00%    100.00% # Distribution of the translation queue size at the time of notification of a new fetch target (Count)
board.cache_hierarchy.l1icaches.prefetcher.prefetchers0.tqSizeDistAtNotify::56-59            0      0.00%    100.00% # Distribution of the translation queue size at the time of notification of a new fetch target (Count)
board.cache_hierarchy.l1icaches.prefetcher.prefetchers0.tqSizeDistAtNotify::60-63            0      0.00%    100.00% # Distribution of the translation queue size at the time of notification of a new fetch target (Count)
board.cache_hierarchy.l1icaches.prefetcher.prefetchers0.tqSizeDistAtNotify::64            0      0.00%    100.00% # Distribution of the translation queue size at the time of notification of a new fetch target (Count)
board.cache_hierarchy.l1icaches.prefetcher.prefetchers0.tqSizeDistAtNotify::overflows            0      0.00%    100.00% # Distribution of the translation queue size at the time of notification of a new fetch target (Count)
board.cache_hierarchy.l1icaches.prefetcher.prefetchers0.tqSizeDistAtNotify::min_value            0                       # Distribution of the translation queue size at the time of notification of a new fetch target (Count)
board.cache_hierarchy.l1icaches.prefetcher.prefetchers0.tqSizeDistAtNotify::max_value            0                       # Distribution of the translation queue size at the time of notification of a new fetch target (Count)
board.cache_hierarchy.l1icaches.prefetcher.prefetchers0.tqSizeDistAtNotify::total     20056764                       # Distribution of the translation queue size at the time of notification of a new fetch target (Count)
board.cache_hierarchy.l1icaches.prefetcher.prefetchers0.pfqInserts        39681                       # Number of insertions into the prefetch candidate queue (Count)
board.cache_hierarchy.l1icaches.prefetcher.prefetchers0.pfqPops         7486                       # Number of uses into the prefetch candidate queue (Count)
board.cache_hierarchy.l1icaches.prefetcher.prefetchers0.pfqDrops            0                       # Number of drops into the prefetch candidate queue (Count)
board.cache_hierarchy.l1icaches.prefetcher.prefetchers0.tqInserts     20056764                       # Number of insertions into the prefetch translation queue (Count)
board.cache_hierarchy.l1icaches.prefetcher.prefetchers0.tqPops     20056764                       # Number of uses into the prefetch translation queue (Count)
board.cache_hierarchy.l1icaches.prefetcher.prefetchers0.tqDrops            0                       # Number of drops into the prefetch translation queue (Count)
board.cache_hierarchy.l1icaches.prefetcher.prefetchers0.power_state.pwrStateResidencyTicks::UNDEFINED   5512257225                       # Cumulative time (in ticks) in various power states (Tick)
board.cache_hierarchy.l1icaches.prefetcher.prefetchers1.demandMshrMisses          632                       # demands not covered by prefetchs (Count)
board.cache_hierarchy.l1icaches.prefetcher.prefetchers1.pfIssued         3222                       # number of hwpf issued (Count)
board.cache_hierarchy.l1icaches.prefetcher.prefetchers1.pfUnused         4377                       # number of HardPF blocks evicted w/o reference (Count)
board.cache_hierarchy.l1icaches.prefetcher.prefetchers1.pfUseful          388                       # number of useful prefetch (Count)
board.cache_hierarchy.l1icaches.prefetcher.prefetchers1.pfUsefulButMiss            0                       # number of hit on prefetch but cache block is not in an usable state (Count)
board.cache_hierarchy.l1icaches.prefetcher.prefetchers1.accuracy     0.120422                       # accuracy of the prefetcher (Count)
board.cache_hierarchy.l1icaches.prefetcher.prefetchers1.coverage     0.380392                       # coverage brought by this prefetcher (Count)
board.cache_hierarchy.l1icaches.prefetcher.prefetchers1.pfHitInCache            0                       # number of prefetches hitting in cache (Count)
[...]
board.processor.cores.core.lsq0.loadToUse::90-99          234      0.00%     99.95% # Distribution of cycle latency between the first time a load is issued and its completion (Cycle)
board.processor.cores.core.lsq0.loadToUse::100-109           85      0.00%     99.95% # Distribution of cycle latency between the first time a load is issued and its completion (Cycle)
board.processor.cores.core.lsq0.loadToUse::110-119          107      0.00%     99.95% # Distribution of cycle latency between the first time a load is issued and its completion (Cycle)
board.processor.cores.core.lsq0.loadToUse::120-129          197      0.00%     99.96% # Distribution of cycle latency between the first time a load is issued and its completion (Cycle)
board.processor.cores.core.lsq0.loadToUse::130-139          159      0.00%     99.96% # Distribution of cycle latency between the first time a load is issued and its completion (Cycle)
board.processor.cores.core.lsq0.loadToUse::140-149          191      0.00%     99.96% # Distribution of cycle latency between the first time a load is issued and its completion (Cycle)
board.processor.cores.core.lsq0.loadToUse::150-159          328      0.01%     99.97% # Distribution of cycle latency between the first time a load is issued and its completion (Cycle)
board.processor.cores.core.lsq0.loadToUse::160-169          554      0.01%     99.98% # Distribution of cycle latency between the first time a load is issued and its completion (Cycle)
board.processor.cores.core.lsq0.loadToUse::170-179          118      0.00%     99.98% # Distribution of cycle latency between the first time a load is issued and its completion (Cycle)
board.processor.cores.core.lsq0.loadToUse::180-189           60      0.00%     99.98% # Distribution of cycle latency between the first time a load is issued and its completion (Cycle)
board.processor.cores.core.lsq0.loadToUse::190-199           78      0.00%     99.98% # Distribution of cycle latency between the first time a load is issued and its completion (Cycle)
board.processor.cores.core.lsq0.loadToUse::200-209           93      0.00%     99.99% # Distribution of cycle latency between the first time a load is issued and its completion (Cycle)
board.processor.cores.core.lsq0.loadToUse::210-219           80      0.00%     99.99% # Distribution of cycle latency between the first time a load is issued and its completion (Cycle)
board.processor.cores.core.lsq0.loadToUse::220-229           25      0.00%     99.99% # Distribution of cycle latency between the first time a load is issued and its completion (Cycle)
board.processor.cores.core.lsq0.loadToUse::230-239           36      0.00%     99.99% # Distribution of cycle latency between the first time a load is issued and its completion (Cycle)
board.processor.cores.core.lsq0.loadToUse::240-249           78      0.00%     99.99% # Distribution of cycle latency between the first time a load is issued and its completion (Cycle)
board.processor.cores.core.lsq0.loadToUse::250-259          144      0.00%     99.99% # Distribution of cycle latency between the first time a load is issued and its completion (Cycle)
board.processor.cores.core.lsq0.loadToUse::260-269           65      0.00%     99.99% # Distribution of cycle latency between the first time a load is issued and its completion (Cycle)
board.processor.cores.core.lsq0.loadToUse::270-279           23      0.00%     99.99% # Distribution of cycle latency between the first time a load is issued and its completion (Cycle)
board.processor.cores.core.lsq0.loadToUse::280-289           27      0.00%     99.99% # Distribution of cycle latency between the first time a load is issued and its completion (Cycle)
board.processor.cores.core.lsq0.loadToUse::290-299           36      0.00%    100.00% # Distribution of cycle latency between the first time a load is issued and its completion (Cycle)
board.processor.cores.core.lsq0.loadToUse::overflows          258      0.00%    100.00% # Distribution of cycle latency between the first time a load is issued and its completion (Cycle)
board.processor.cores.core.lsq0.loadToUse::min_value            2                       # Distribution of cycle latency between the first time a load is issued and its completion (Cycle)
board.processor.cores.core.lsq0.loadToUse::max_value         1273                       # Distribution of cycle latency between the first time a load is issued and its completion (Cycle)
board.processor.cores.core.lsq0.loadToUse::total      5417046                       # Distribution of cycle latency between the first time a load is issued and its completion (Cycle)
board.processor.cores.core.lsq0.addedLoadsAndStores     10460339                       # Number of loads and stores written to the Load Store Queue (Count)
board.processor.cores.core.lsq0.lqAvgOccupancy         0.07                       # Average LQ Occupancy (UsedSlots/TotalSlots) (Ratio)
board.processor.cores.core.lsq0.sqAvgOccupancy         0.06                       # Average SQ Occupancy (UsedSlots/TotalSlots) (Ratio)
board.processor.cores.core.mmu.alignFaults            0                       # Number of MMU faults due to alignment restrictions (Count)
board.processor.cores.core.mmu.prefetchFaults            0                       # Number of MMU faults due to prefetch (Count)
board.processor.cores.core.mmu.domainFaults            0                       # Number of MMU faults due to domain restrictions (Count)
board.processor.cores.core.mmu.permsFaults            0                       # Number of MMU faults due to permissions restrictions (Count)
board.processor.cores.core.mmu.dtb.readHits            0                       # Read hits (Count)
board.processor.cores.core.mmu.dtb.readMisses            0                       # Read misses (Count)
board.processor.cores.core.mmu.dtb.writeHits            0                       # Write hits (Count)
board.processor.cores.core.mmu.dtb.writeMisses            0                       # Write misses (Count)
board.processor.cores.core.mmu.dtb.inserts            0                       # Number of times an entry is inserted into the TLB (Count)
board.processor.cores.core.mmu.dtb.flushTlb            2                       # Number of times a TLB invalidation was requested (Count)
board.processor.cores.core.mmu.dtb.flushedEntries            0                       # Number of entries that have been flushed from TLB (Count)
board.processor.cores.core.mmu.dtb.readAccesses            0                       # Read accesses (Count)
board.processor.cores.core.mmu.dtb.writeAccesses            0                       # Write accesses (Count)
board.processor.cores.core.mmu.dtb.hits             0                       # Total TLB (inst and data) hits (Count)
board.processor.cores.core.mmu.dtb.misses            0                       # Total TLB (inst and data) misses (Count)
board.processor.cores.core.mmu.dtb.accesses            0                       # Total TLB (inst and data) accesses (Count)
board.processor.cores.core.mmu.itb.instHits            0                       # Inst hits (Count)
board.processor.cores.core.mmu.itb.instMisses            0                       # Inst misses (Count)
board.processor.cores.core.mmu.itb.inserts            0                       # Number of times an entry is inserted into the TLB (Count)
board.processor.cores.core.mmu.itb.flushTlb            2                       # Number of times a TLB invalidation was requested (Count)
board.processor.cores.core.mmu.itb.flushedEntries            0                       # Number of entries that have been flushed from TLB (Count)
board.processor.cores.core.mmu.itb.instAccesses            0                       # Inst accesses (Count)
board.processor.cores.core.mmu.itb.hits             0                       # Total TLB (inst and data) hits (Count)
board.processor.cores.core.mmu.itb.misses            0                       # Total TLB (inst and data) misses (Count)
board.processor.cores.core.mmu.itb.accesses            0                       # Total TLB (inst and data) accesses (Count)
board.processor.cores.core.mmu.l2_shared.instHits            0                       # Inst hits (Count)
board.processor.cores.core.mmu.l2_shared.instMisses            0                       # Inst misses (Count)
board.processor.cores.core.mmu.l2_shared.inserts            0                       # Number of times an entry is inserted into the TLB (Count)
board.processor.cores.core.mmu.l2_shared.flushTlb            0                       # Number of times a TLB invalidation was requested (Count)
board.processor.cores.core.mmu.l2_shared.flushedEntries            0                       # Number of entries that have been flushed from TLB (Count)
board.processor.cores.core.mmu.l2_shared.instAccesses            0                       # Inst accesses (Count)
board.processor.cores.core.mmu.l2_shared.hits            0                       # Total TLB (inst and data) hits (Count)
board.processor.cores.core.mmu.l2_shared.misses            0                       # Total TLB (inst and data) misses (Count)
board.processor.cores.core.mmu.l2_shared.accesses            0                       # Total TLB (inst and data) accesses (Count)
board.processor.cores.core.mmu.stage2_dtb.readHits            0                       # Read hits (Count)
board.processor.cores.core.mmu.stage2_dtb.readMisses            0                       # Read misses (Count)
board.processor.cores.core.mmu.stage2_dtb.writeHits            0                       # Write hits (Count)
board.processor.cores.core.mmu.stage2_dtb.writeMisses            0                       # Write misses (Count)
board.processor.cores.core.mmu.stage2_dtb.inserts            0                       # Number of times an entry is inserted into the TLB (Count)
board.processor.cores.core.mmu.stage2_dtb.flushTlb            2                       # Number of times a TLB invalidation was requested (Count)
board.processor.cores.core.mmu.stage2_dtb.flushedEntries            0                       # Number of entries that have been flushed from TLB (Count)
board.processor.cores.core.mmu.stage2_dtb.readAccesses            0                       # Read accesses (Count)
board.processor.cores.core.mmu.stage2_dtb.writeAccesses            0                       # Write accesses (Count)
board.processor.cores.core.mmu.stage2_dtb.hits            0                       # Total TLB (inst and data) hits (Count)
board.processor.cores.core.mmu.stage2_dtb.misses            0                       # Total TLB (inst and data) misses (Count)
board.processor.cores.core.mmu.stage2_dtb.accesses            0                       # Total TLB (inst and data) accesses (Count)
board.processor.cores.core.mmu.stage2_itb.instHits            0                       # Inst hits (Count)
board.processor.cores.core.mmu.stage2_itb.instMisses            0                       # Inst misses (Count)
board.processor.cores.core.mmu.stage2_itb.inserts            0                       # Number of times an entry is inserted into the TLB (Count)
board.processor.cores.core.mmu.stage2_itb.flushTlb            2                       # Number of times a TLB invalidation was requested (Count)
board.processor.cores.core.mmu.stage2_itb.flushedEntries            0                       # Number of entries that have been flushed from TLB (Count)
board.processor.cores.core.mmu.stage2_itb.instAccesses            0                       # Inst accesses (Count)
board.processor.cores.core.mmu.stage2_itb.hits            0                       # Total TLB (inst and data) hits (Count)
board.processor.cores.core.mmu.stage2_itb.misses            0                       # Total TLB (inst and data) misses (Count)
board.processor.cores.core.mmu.stage2_itb.accesses            0                       # Total TLB (inst and data) accesses (Count)
board.processor.cores.core.mmu.walker.instructionWalksS1            0                       # Table walker stage 1 instruction walks requested (Count)
board.processor.cores.core.mmu.walker.instructionWalksS2            0                       # Table walker stage 2 instruction walks requested (Count)
board.processor.cores.core.mmu.walker.dataWalksS1            0                       # Table walker stage 1 data walks requested (Count)
board.processor.cores.core.mmu.walker.dataWalksS2            0                       # Table walker stage 2 data walks requested (Count)
board.processor.cores.core.mmu.walker.requestOrigin_Requested::Data            0                       # Table walker requests started/completed, data/inst (Count)
board.processor.cores.core.mmu.walker.requestOrigin_Requested::Inst            0                       # Table walker requests started/completed, data/inst (Count)
board.processor.cores.core.mmu.walker.requestOrigin_Requested::total            0                       # Table walker requests started/completed, data/inst (Count)
board.processor.cores.core.mmu.walker.requestOrigin_Completed::Data            0                       # Table walker requests started/completed, data/inst (Count)
board.processor.cores.core.mmu.walker.requestOrigin_Completed::Inst            0                       # Table walker requests started/completed, data/inst (Count)
board.processor.cores.core.mmu.walker.requestOrigin_Completed::total            0                       # Table walker requests started/completed, data/inst (Count)
board.processor.cores.core.mmu.walker.requestOrigin::total            0                       # Table walker requests started/completed, data/inst (Count)
board.processor.cores.core.mmu.walker.walks            0                       # Table walker walks requested (Count)
board.processor.cores.core.mmu.walker.power_state.pwrStateResidencyTicks::UNDEFINED   5512257225                       # Cumulative time (in ticks) in various power states (Tick)
board.processor.cores.core.mmu.walker.walk_unit_func_s1.power_state.pwrStateResidencyTicks::UNDEFINED   5512257225                       # Cumulative time (in ticks) in various power states (Tick)
board.processor.cores.core.mmu.walker.walk_unit_func_s2.power_state.pwrStateResidencyTicks::UNDEFINED   5512257225                       # Cumulative time (in ticks) in various power states (Tick)
board.processor.cores.core.mmu.walker.walk_units0.power_state.pwrStateResidencyTicks::UNDEFINED   5512257225                       # Cumulative time (in ticks) in various power states (Tick)
board.processor.cores.core.mmu.walker.walk_units1.power_state.pwrStateResidencyTicks::UNDEFINED   5512257225                       # Cumulative time (in ticks) in various power states (Tick)
board.processor.cores.core.mmu.walker.walk_units2.power_state.pwrStateResidencyTicks::UNDEFINED   5512257225                       # Cumulative time (in ticks) in various power states (Tick)
board.processor.cores.core.mmu.walker.walk_units3.power_state.pwrStateResidencyTicks::UNDEFINED   5512257225                       # Cumulative time (in ticks) in various power states (Tick)
board.processor.cores.core.mmu.walker.walk_units4.power_state.pwrStateResidencyTicks::UNDEFINED   5512257225                       # Cumulative time (in ticks) in various power states (Tick)
board.processor.cores.core.mmu.walker.walk_units5.power_state.pwrStateResidencyTicks::UNDEFINED   5512257225                       # Cumulative time (in ticks) in various power states (Tick)
board.processor.cores.core.mmu.walker.walk_units6.power_state.pwrStateResidencyTicks::UNDEFINED   5512257225                       # Cumulative time (in ticks) in various power states (Tick)
board.processor.cores.core.mmu.walker.walk_units7.power_state.pwrStateResidencyTicks::UNDEFINED   5512257225                       # Cumulative time (in ticks) in various power states (Tick)
board.processor.cores.core.power_state.pwrStateResidencyTicks::ON   5512257225                       # Cumulative time (in ticks) in various power states (Tick)
board.processor.cores.core.rename.status::Running      8802217     53.39%     53.39% # Number of cycles rename is running (Cycle)
board.processor.cores.core.rename.status::Idle      6244683     37.88%     91.27% # Number of cycles rename is idle (Cycle)
board.processor.cores.core.rename.status::Squashing       303062      1.84%     93.11% # Number of cycles rename is squashing (Cycle)
board.processor.cores.core.rename.status::Blocked       904959      5.49%     98.60% # Number of cycles rename is blocking (Cycle)
board.processor.cores.core.rename.status::Unblocking       218303      1.32%     99.92% # Number of cycles rename is unblocking (Cycle)
board.processor.cores.core.rename.status::SerializeStall        13312      0.08%    100.00% # Number of cycles rename stalled for serializing inst (Cycle)
board.processor.cores.core.rename.renamedInsts     36876948                       # Number of instructions processed by rename (Count)
board.processor.cores.core.rename.squashedInsts       760425                       # Number of squashed instructions processed by rename (Count)
board.processor.cores.core.rename.ROBFullEvents         1080                       # Number of times rename has blocked due to ROB full (Count)
board.processor.cores.core.rename.SQFullEvents        13123                       # Number of times rename has blocked due to SQ full (Count)
board.processor.cores.core.rename.fullRegistersEvents        50575                       # Number of times there has been no free registers (Count)
board.processor.cores.core.rename.renamedOperands     44768473                       # Number of destination operands rename has renamed (Count)
board.processor.cores.core.rename.lookups     66518357                       # Number of register rename lookups that rename has made (Count)
board.processor.cores.core.rename.intLookups     42760944                       # Number of integer rename lookups (Count)
board.processor.cores.core.rename.vecLookups      1822848                       # Number of vector rename lookups (Count)
board.processor.cores.core.rename.vecPredLookups         9903                       # Number of vector predicate rename lookups (Count)
board.processor.cores.core.rename.committedMaps     29379500                       # Number of HB maps that are committed (Count)
board.processor.cores.core.rename.undoneMaps     15388973                       # Number of HB maps that are undone due to squashing (Count)
board.processor.cores.core.rename.serializing          257                       # count of serializing insts renamed (Count)
board.processor.cores.core.rename.tempSerializing          219                       # count of temporary serializing insts renamed (Count)
board.processor.cores.core.rename.skidInsts      1001584                       # count of insts added to the skid buffer (Count)
board.processor.cores.core.rename.intReturned     14802642                       # count of registers freed and written back to integer free list (Count)
board.processor.cores.core.rob.reads         50113604                       # The number of ROB reads (Count)
board.processor.cores.core.rob.writes        70797774                       # The number of ROB writes (Count)
board.processor.cores.core.thread_0.numInsts     23231586                       # Number of Instructions committed (Count)
board.processor.cores.core.thread_0.numOps     24386549                       # Number of Ops committed (Count)
board.processor.cores.core.thread_0.numMemRefs      7045058                       # Number of Memory References (Count)
board.processor.cores.core.workload.numSyscalls          155                       # Number of system calls (Count)
board.workload.inst.arm                             0                       # number of arm instructions executed (Count)
board.workload.inst.quiesce                         0                       # number of quiesce instructions executed (Count)

---------- End Simulation Statistics   ----------
